<?xml version="1.0" encoding="UTF-8"?>

<!-- generated on 2024-03-13 15:36:16.872442 by osmWebWizard.py UNKNOWN
<configuration>
    <net-file value="/opt/homebrew/Cellar/sumo/1.19.0/share/sumo/tools/2024-03-13-15-36-09/osm.net.xml.gz"/>
    <output-trip-file value="/opt/homebrew/Cellar/sumo/1.19.0/share/sumo/tools/2024-03-13-15-36-09/osm.passenger.trips.xml"/>
    <route-file value="/opt/homebrew/Cellar/sumo/1.19.0/share/sumo/tools/2024-03-13-15-36-09/osm.passenger.rou.xml"/>
    <prefix value="veh"/>
    <trip-attributes value="departLane=&quot;best&quot;"/>
    <fringe-start-attributes value="departSpeed=&quot;max&quot;"/>
    <vehicle-class value="passenger"/>
    <lanes value="True"/>
    <fringe-factor value="5"/>
    <allow-fringe.min-length value="1000.0"/>
    <via-edge-types value="highway.motorway,highway.motorway_link,highway.trunk_link,highway.primary_link,highway.secondary_link,highway.tertiary_link"/>
    <min-distance value="300.0"/>
    <min-distance.fringe value="10.0"/>
    <remove-loops value="True"/>
    <validate value="True"/>
    <insertion-density value="12.0"/>
</configuration>
-->

<!-- generated on 2024-03-13 15:36:16 by Eclipse SUMO duarouter Version 1.19.0
<configuration xmlns:xsi="http://www.w3.org/2001/XMLSchema-instance" xsi:noNamespaceSchemaLocation="http://sumo.dlr.de/xsd/duarouterConfiguration.xsd">

    <input>
        <net-file value="/opt/homebrew/Cellar/sumo/1.19.0/share/sumo/tools/2024-03-13-15-36-09/osm.net.xml.gz"/>
        <route-files value="/opt/homebrew/Cellar/sumo/1.19.0/share/sumo/tools/2024-03-13-15-36-09/osm.passenger.trips.xml"/>
    </input>

    <output>
        <output-file value="/opt/homebrew/Cellar/sumo/1.19.0/share/sumo/tools/2024-03-13-15-36-09/osm.passenger.trips.xml.tmp"/>
        <alternatives-output value="NUL"/>
        <write-trips value="true"/>
    </output>

    <processing>
        <remove-loops value="true"/>
    </processing>

    <time>
        <begin value="0.0"/>
        <end value="3600.0"/>
    </time>

    <report>
        <no-warnings value="true"/>
        <ignore-errors value="true"/>
        <no-step-log value="true"/>
    </report>

</configuration>
-->

<routes xmlns:xsi="http://www.w3.org/2001/XMLSchema-instance" xsi:noNamespaceSchemaLocation="http://sumo.dlr.de/xsd/routes_file.xsd">
    <vType id="veh_passenger" vClass="passenger"/>
    <trip id="veh0" type="veh_passenger" depart="0.00" departLane="best" from="231414758#13" to="-1050145551"/>
    <trip id="veh1" type="veh_passenger" depart="17.10" departLane="best" from="-279501943#1" to="-231415002#0"/>
    <trip id="veh2" type="veh_passenger" depart="34.21" departLane="best" from="-231414998#2" to="1075653171"/>
    <trip id="veh3" type="veh_passenger" depart="51.31" departLane="best" from="-1050145551" to="231414764#1"/>
    <trip id="veh4" type="veh_passenger" depart="68.42" departLane="best" from="320343169#0" to="231414764#1"/>
    <trip id="veh5" type="veh_passenger" depart="85.52" departLane="best" from="544708858#1" to="231414758#11"/>
    <trip id="veh6" type="veh_passenger" depart="102.63" departLane="best" departSpeed="max" from="1121695415#0" to="717084282#5"/>
    <trip id="veh7" type="veh_passenger" depart="119.73" departLane="best" from="544708857" to="231414758#2"/>
    <trip id="veh8" type="veh_passenger" depart="136.84" departLane="best" from="544709342" to="231414755#7"/>
    <trip id="veh9" type="veh_passenger" depart="153.94" departLane="best" from="-231414755#7" to="-231415002#2"/>
    <trip id="veh10" type="veh_passenger" depart="171.04" departLane="best" from="231414758#4" to="231414758#12"/>
    <trip id="veh11" type="veh_passenger" depart="188.15" departLane="best" from="231415002#1" to="-1075653171"/>
    <trip id="veh12" type="veh_passenger" depart="205.25" departLane="best" from="-681862999#0" to="-544708857"/>
    <trip id="veh13" type="veh_passenger" depart="222.36" departLane="best" departSpeed="max" from="1121695415#0" to="-231415002#7"/>
    <trip id="veh14" type="veh_passenger" depart="239.46" departLane="best" from="-717084278#0" to="231414998#2"/>
    <trip id="veh16" type="veh_passenger" depart="273.67" departLane="best" from="-231414758#12" to="231414758#4"/>
    <trip id="veh17" type="veh_passenger" depart="290.78" departLane="best" from="-231414755#4" to="-716663879"/>
    <trip id="veh19" type="veh_passenger" depart="324.99" departLane="best" from="-231414758#12" to="-717084281#1"/>
    <trip id="veh20" type="veh_passenger" depart="342.09" departLane="best" from="-681862999#0" to="-231415002#7"/>
    <trip id="veh21" type="veh_passenger" depart="359.19" departLane="best" from="-231415002#6" to="1121695415#1"/>
    <trip id="veh22" type="veh_passenger" depart="376.30" departLane="best" from="-681862999#1" to="-544708858#1"/>
    <trip id="veh23" type="veh_passenger" depart="393.40" departLane="best" from="-681862999#1" to="717084282#1"/>
    <trip id="veh24" type="veh_passenger" depart="410.51" departLane="best" departSpeed="max" from="1035763355#0" to="231414755#2"/>
    <trip id="veh25" type="veh_passenger" depart="427.61" departLane="best" departSpeed="max" from="1121695415#0" to="231415002#1"/>
    <trip id="veh26" type="veh_passenger" depart="444.72" departLane="best" from="-231414997" to="-544708856#5"/>
    <trip id="veh28" type="veh_passenger" depart="478.93" departLane="best" from="717084281#2" to="1121695415#1"/>
    <trip id="veh29" type="veh_passenger" depart="496.03" departLane="best" from="-231415002#2" to="231414998#2"/>
    <trip id="veh30" type="veh_passenger" depart="513.13" departLane="best" from="-231415002#1" to="717084278#1"/>
    <trip id="veh31" type="veh_passenger" depart="530.24" departLane="best" from="544708859" to="-231414755#6"/>
    <trip id="veh32" type="veh_passenger" depart="547.34" departLane="best" from="-231414998#2" to="-231414758#5"/>
    <trip id="veh33" type="veh_passenger" depart="564.45" departLane="best" departSpeed="max" from="1035763355#0" to="-320343169#0"/>
    <trip id="veh34" type="veh_passenger" depart="581.55" departLane="best" from="544709342" to="231415002#5"/>
    <trip id="veh35" type="veh_passenger" depart="598.66" departLane="best" from="231414764#0" to="717084282#1"/>
    <trip id="veh36" type="veh_passenger" depart="615.76" departLane="best" from="231415002#5" to="717084280"/>
    <trip id="veh37" type="veh_passenger" depart="632.87" departLane="best" departSpeed="max" from="1121695415#0" to="-231414755#2"/>
    <trip id="veh39" type="veh_passenger" depart="667.07" departLane="best" from="544708858#1" to="-231414763#1"/>
    <trip id="veh40" type="veh_passenger" depart="684.18" departLane="best" departSpeed="max" from="1035763355#0" to="-231414998#1"/>
    <trip id="veh41" type="veh_passenger" depart="701.28" departLane="best" from="716663879" to="77852919#0"/>
    <trip id="veh42" type="veh_passenger" depart="718.39" departLane="best" from="717084281#2" to="77852919#0"/>
    <trip id="veh43" type="veh_passenger" depart="735.49" departLane="best" departSpeed="max" from="1121695415#0" to="231415002#5"/>
    <trip id="veh44" type="veh_passenger" depart="752.60" departLane="best" from="231414755#3" to="231414755#8"/>
    <trip id="veh45" type="veh_passenger" depart="769.70" departLane="best" from="231414763#0" to="717084282#3"/>
    <trip id="veh46" type="veh_passenger" depart="786.81" departLane="best" from="-231414755#7" to="231414763#5"/>
    <trip id="veh47" type="veh_passenger" depart="803.91" departLane="best" from="716405864#0" to="-231415002#4"/>
    <trip id="veh48" type="veh_passenger" depart="821.02" departLane="best" from="-717084280" to="231414755#8"/>
    <trip id="veh49" type="veh_passenger" depart="838.12" departLane="best" from="231414998#0" to="231414998#2"/>
    <trip id="veh50" type="veh_passenger" depart="855.22" departLane="best" from="231414762#0" to="-544708856#2"/>
    <trip id="veh51" type="veh_passenger" depart="872.33" departLane="best" from="544708858#0" to="231415002#5"/>
    <trip id="veh52" type="veh_passenger" depart="889.43" departLane="best" from="77852919#0" to="77852919#0"/>
    <trip id="veh53" type="veh_passenger" depart="906.54" departLane="best" from="716405864#1" to="-231414763#0"/>
    <trip id="veh54" type="veh_passenger" depart="923.64" departLane="best" from="544708857" to="-231414997"/>
    <trip id="veh55" type="veh_passenger" depart="940.75" departLane="best" from="-231414758#0" to="77852919#0"/>
    <trip id="veh56" type="veh_passenger" depart="957.85" departLane="best" from="-231414758#7" to="-231414758#13"/>
    <trip id="veh57" type="veh_passenger" depart="974.96" departLane="best" from="-231414758#12" to="-231414755#2"/>
    <trip id="veh58" type="veh_passenger" depart="992.06" departLane="best" from="-279501943#0" to="231414758#11"/>
    <trip id="veh59" type="veh_passenger" depart="1009.16" departLane="best" from="-231414764#1" to="-231414997"/>
    <trip id="veh60" type="veh_passenger" depart="1026.27" departLane="best" departSpeed="max" from="1035763355#0" to="717084278#1"/>
    <trip id="veh61" type="veh_passenger" depart="1043.37" departLane="best" from="544708858#0" to="231414755#8"/>
    <trip id="veh62" type="veh_passenger" depart="1060.48" departLane="best" from="-544708856#5" to="717084278#0"/>
    <trip id="veh63" type="veh_passenger" depart="1077.58" departLane="best" from="279501943#0" to="706561232#1"/>
    <trip id="veh64" type="veh_passenger" depart="1094.69" departLane="best" from="231415002#6" to="717084275"/>
    <trip id="veh65" type="veh_passenger" depart="1111.79" departLane="best" from="544709342" to="77852919#0"/>
    <trip id="veh66" type="veh_passenger" depart="1128.90" departLane="best" from="320343169#0" to="231415002#6"/>
    <trip id="veh67" type="veh_passenger" depart="1146.00" departLane="best" from="681862999#0" to="681862999#1"/>
    <trip id="veh68" type="veh_passenger" depart="1163.10" departLane="best" from="231415002#0" to="-544708858#0"/>
    <trip id="veh69" type="veh_passenger" depart="1180.21" departLane="best" from="-279501943#0" to="-231415002#1"/>
    <trip id="veh70" type="veh_passenger" depart="1197.31" departLane="best" from="-1050145551" to="-231414764#0"/>
    <trip id="veh71" type="veh_passenger" depart="1214.42" departLane="best" from="544708859" to="231415002#6"/>
    <trip id="veh72" type="veh_passenger" depart="1231.52" departLane="best" from="-231414758#13" to="-717084278#0"/>
    <trip id="veh73" type="veh_passenger" depart="1248.63" departLane="best" from="-717084282#3" to="1121695415#1"/>
    <trip id="veh74" type="veh_passenger" depart="1265.73" departLane="best" from="717084279#1" to="231414758#13"/>
    <trip id="veh75" type="veh_passenger" depart="1282.84" departLane="best" from="-231414758#12" to="-717084281#1"/>
    <trip id="veh76" type="veh_passenger" depart="1299.94" departLane="best" from="231414998#0" to="-544708857"/>
    <trip id="veh77" type="veh_passenger" depart="1317.05" departLane="best" from="-231414755#8" to="1121695415#1"/>
    <trip id="veh78" type="veh_passenger" depart="1334.15" departLane="best" from="-544708856#5" to="-717084278#1"/>
    <trip id="veh79" type="veh_passenger" depart="1351.25" departLane="best" from="717084279#1" to="231414763#3"/>
    <trip id="veh80" type="veh_passenger" depart="1368.36" departLane="best" from="716663879" to="231414758#13"/>
    <trip id="veh81" type="veh_passenger" depart="1385.46" departLane="best" departSpeed="max" from="1035763355#0" to="717084278#0"/>
    <trip id="veh82" type="veh_passenger" depart="1402.57" departLane="best" from="-279501943#0" to="-231414763#2"/>
    <trip id="veh83" type="veh_passenger" depart="1419.67" departLane="best" from="-231414755#8" to="1121695415#1"/>
    <trip id="veh84" type="veh_passenger" depart="1436.78" departLane="best" from="231414758#12" to="-544709342"/>
    <trip id="veh85" type="veh_passenger" depart="1453.88" departLane="best" from="-544708856#4" to="231415002#5"/>
    <trip id="veh86" type="veh_passenger" depart="1470.99" departLane="best" from="231414762#0" to="-231415002#0"/>
    <trip id="veh87" type="veh_passenger" depart="1488.09" departLane="best" departSpeed="max" from="1035763355#0" to="-231415002#4"/>
    <trip id="veh88" type="veh_passenger" depart="1505.19" departLane="best" from="231415002#1" to="279501943#0"/>
    <trip id="veh89" type="veh_passenger" depart="1522.30" departLane="best" from="-231414758#11" to="-717084281#0"/>
    <trip id="veh90" type="veh_passenger" depart="1539.40" departLane="best" from="231414763#3" to="717084282#3"/>
    <trip id="veh91" type="veh_passenger" depart="1556.51" departLane="best" from="-717084282#3" to="544708856#5"/>
    <trip id="veh92" type="veh_passenger" depart="1573.61" departLane="best" from="-231414758#9" to="77852919#0"/>
    <trip id="veh93" type="veh_passenger" depart="1590.72" departLane="best" from="716405864#0" to="231414758#12"/>
    <trip id="veh94" type="veh_passenger" depart="1607.82" departLane="best" from="544708857" to="-231414755#1"/>
    <trip id="veh95" type="veh_passenger" depart="1624.93" departLane="best" departSpeed="max" from="1035763355#0" to="-231415002#7"/>
    <trip id="veh96" type="veh_passenger" depart="1642.03" departLane="best" from="-231415002#4" to="1121695415#1"/>
    <trip id="veh97" type="veh_passenger" depart="1659.13" departLane="best" from="-231414755#7" to="320343169#1"/>
    <trip id="veh98" type="veh_passenger" depart="1676.24" departLane="best" departSpeed="max" from="1121695415#0" to="231414758#7"/>
    <trip id="veh99" type="veh_passenger" depart="1693.34" departLane="best" from="-231415002#2" to="231414764#1"/>
    <trip id="veh100" type="veh_passenger" depart="1710.45" departLane="best" from="-231414763#5" to="-231414755#4"/>
    <trip id="veh101" type="veh_passenger" depart="1727.55" departLane="best" from="717084279#0" to="-231414755#0"/>
    <trip id="veh102" type="veh_passenger" depart="1744.66" departLane="best" from="-717084279#1" to="-231414998#0"/>
    <trip id="veh103" type="veh_passenger" depart="1761.76" departLane="best" from="-231414755#4" to="231414764#1"/>
    <trip id="veh104" type="veh_passenger" depart="1778.87" departLane="best" from="544708859" to="231415004"/>
    <trip id="veh105" type="veh_passenger" depart="1795.97" departLane="best" from="-681862999#0" to="231415002#6"/>
    <trip id="veh106" type="veh_passenger" depart="1813.08" departLane="best" from="-717084280" to="-231415002#5"/>
    <trip id="veh107" type="veh_passenger" depart="1830.18" departLane="best" departSpeed="max" from="1121695415#0" to="231414758#11"/>
    <trip id="veh108" type="veh_passenger" depart="1847.28" departLane="best" from="231415002#0" to="231414998#2"/>
    <trip id="veh109" type="veh_passenger" depart="1864.39" departLane="best" from="-717084278#1" to="-231414763#1"/>
    <trip id="veh110" type="veh_passenger" depart="1881.49" departLane="best" from="231415002#1" to="-544708858#1"/>
    <trip id="veh111" type="veh_passenger" depart="1898.60" departLane="best" from="717084281#0" to="-231414997"/>
    <trip id="veh112" type="veh_passenger" depart="1915.70" departLane="best" from="-1050145550" to="-231414762#1"/>
    <trip id="veh113" type="veh_passenger" depart="1932.81" departLane="best" from="231414763#2" to="231414758#11"/>
    <trip id="veh114" type="veh_passenger" depart="1949.91" departLane="best" from="231415002#0" to="-231414758#13"/>
    <trip id="veh115" type="veh_passenger" depart="1967.02" departLane="best" from="-231414758#12" to="-1050145551"/>
    <trip id="veh116" type="veh_passenger" depart="1984.12" departLane="best" from="231414764#0" to="231414755#7"/>
    <trip id="veh117" type="veh_passenger" depart="2001.22" departLane="best" from="-231414758#11" to="279501943#0"/>
    <trip id="veh118" type="veh_passenger" depart="2018.33" departLane="best" from="544708858#1" to="231414758#10"/>
    <trip id="veh119" type="veh_passenger" depart="2035.43" departLane="best" from="-231414758#2" to="77852919#0"/>
    <trip id="veh120" type="veh_passenger" depart="2052.54" departLane="best" from="231415002#7" to="-544709344"/>
    <trip id="veh121" type="veh_passenger" depart="2069.64" departLane="best" from="231414758#12" to="-544708858#1"/>
    <trip id="veh122" type="veh_passenger" depart="2086.75" departLane="best" from="-231414763#5" to="-717084281#2"/>
    <trip id="veh123" type="veh_passenger" depart="2103.85" departLane="best" from="231414998#1" to="717084282#4"/>
    <trip id="veh124" type="veh_passenger" depart="2120.96" departLane="best" from="717084281#2" to="-231415002#1"/>
    <trip id="veh125" type="veh_passenger" depart="2138.06" departLane="best" from="-279501943#0" to="681862999#0"/>
    <trip id="veh126" type="veh_passenger" depart="2155.17" departLane="best" from="544708857" to="-231414758#0"/>
    <trip id="veh127" type="veh_passenger" depart="2172.27" departLane="best" from="-681862999#1" to="-231415002#4"/>
    <trip id="veh128" type="veh_passenger" depart="2189.37" departLane="best" from="-717084282#4" to="231414758#12"/>
    <trip id="veh129" type="veh_passenger" depart="2206.48" departLane="best" from="716663879" to="1075653171"/>
    <trip id="veh130" type="veh_passenger" depart="2223.58" departLane="best" from="544709343" to="-716663879"/>
    <trip id="veh131" type="veh_passenger" depart="2240.69" departLane="best" from="231414763#4" to="279501943#1"/>
    <trip id="veh132" type="veh_passenger" depart="2257.79" departLane="best" from="-231414758#0" to="231414998#2"/>
    <trip id="veh133" type="veh_passenger" depart="2274.90" departLane="best" departSpeed="max" from="1035763355#0" to="231415002#7"/>
    <trip id="veh134" type="veh_passenger" depart="2292.00" departLane="best" from="231414763#2" to="-231414762#0"/>
    <trip id="veh135" type="veh_passenger" depart="2309.11" departLane="best" departSpeed="max" from="1035763355#0" to="-544708856#2"/>
    <trip id="veh136" type="veh_passenger" depart="2326.21" departLane="best" from="231414763#2" to="-544708856#4"/>
    <trip id="veh137" type="veh_passenger" depart="2343.31" departLane="best" from="1076053842#1" to="-717084281#0"/>
    <trip id="veh138" type="veh_passenger" depart="2360.42" departLane="best" from="231415002#0" to="-544708859"/>
    <trip id="veh139" type="veh_passenger" depart="2377.52" departLane="best" from="-231414764#1" to="231414758#2"/>
    <trip id="veh140" type="veh_passenger" depart="2394.63" departLane="best" departSpeed="max" from="1121695415#0" to="231415002#7"/>
    <trip id="veh141" type="veh_passenger" depart="2411.73" departLane="best" departSpeed="max" from="1035763355#0" to="-231415002#0"/>
    <trip id="veh142" type="veh_passenger" depart="2428.84" departLane="best" from="717084282#2" to="1121695415#1"/>
    <trip id="veh143" type="veh_passenger" depart="2445.94" departLane="best" from="-320343169#0" to="-231414758#10"/>
    <trip id="veh144" type="veh_passenger" depart="2463.05" departLane="best" from="-231414764#1" to="231415002#1"/>
    <trip id="veh145" type="veh_passenger" depart="2480.15" departLane="best" from="-231414763#4" to="-1050145549"/>
    <trip id="veh146" type="veh_passenger" depart="2497.25" departLane="best" from="1076053842#1" to="279501943#1"/>
    <trip id="veh147" type="veh_passenger" depart="2514.36" departLane="best" from="-681862999#0" to="231414755#6"/>
    <trip id="veh148" type="veh_passenger" depart="2531.46" departLane="best" from="-231414763#5" to="-231414755#2"/>
    <trip id="veh149" type="veh_passenger" depart="2548.57" departLane="best" from="231414755#3" to="-231414762#0"/>
    <trip id="veh150" type="veh_passenger" depart="2565.67" departLane="best" from="-717084282#0" to="681862999#1"/>
    <trip id="veh151" type="veh_passenger" depart="2582.78" departLane="best" from="231414758#10" to="231414758#12"/>
    <trip id="veh152" type="veh_passenger" depart="2599.88" departLane="best" from="-231414758#7" to="-231414763#0"/>
    <trip id="veh153" type="veh_passenger" depart="2616.99" departLane="best" from="231414763#4" to="717084282#2"/>
    <trip id="veh154" type="veh_passenger" depart="2634.09" departLane="best" from="231414763#1" to="717084280"/>
    <trip id="veh155" type="veh_passenger" depart="2651.20" departLane="best" from="-544708856#5" to="231414755#6"/>
    <trip id="veh156" type="veh_passenger" depart="2668.30" departLane="best" from="231414763#1" to="-231414997"/>
    <trip id="veh157" type="veh_passenger" depart="2685.40" departLane="best" departSpeed="max" from="1035763355#0" to="231414755#7"/>
    <trip id="veh158" type="veh_passenger" depart="2702.51" departLane="best" from="231414755#0" to="-717084281#1"/>
    <trip id="veh159" type="veh_passenger" depart="2719.61" departLane="best" from="544708858#1" to="231415002#5"/>
    <trip id="veh160" type="veh_passenger" depart="2736.72" departLane="best" from="544708858#0" to="231414755#6"/>
    <trip id="veh161" type="veh_passenger" depart="2753.82" departLane="best" from="717084281#0" to="77852919#0"/>
    <trip id="veh162" type="veh_passenger" depart="2770.93" departLane="best" from="231414762#0" to="-279501943#0"/>
    <trip id="veh163" type="veh_passenger" depart="2788.03" departLane="best" departSpeed="max" from="1035763355#0" to="231414758#0"/>
    <trip id="veh164" type="veh_passenger" depart="2805.14" departLane="best" from="-681862999#0" to="-544708859"/>
    <trip id="veh165" type="veh_passenger" depart="2822.24" departLane="best" from="231414762#0" to="681862999#1"/>
    <trip id="veh166" type="veh_passenger" depart="2839.34" departLane="best" from="-320343169#1" to="717084282#0"/>
    <trip id="veh167" type="veh_passenger" depart="2856.45" departLane="best" from="-717084282#3" to="-544708857"/>
    <trip id="veh168" type="veh_passenger" depart="2873.55" departLane="best" from="-717084278#1" to="1121695415#1"/>
    <trip id="veh169" type="veh_passenger" depart="2890.66" departLane="best" from="717084282#4" to="-231414763#0"/>
    <trip id="veh170" type="veh_passenger" depart="2907.76" departLane="best" departSpeed="max" from="1121695415#0" to="-717084279#0"/>
    <trip id="veh171" type="veh_passenger" depart="2924.87" departLane="best" from="-231414764#0" to="231415002#6"/>
    <trip id="veh172" type="veh_passenger" depart="2941.97" departLane="best" departSpeed="max" from="1121695415#0" to="-717084281#0"/>
    <trip id="veh173" type="veh_passenger" depart="2959.08" departLane="best" from="717084281#2" to="231414764#1"/>
    <trip id="veh174" type="veh_passenger" depart="2976.18" departLane="best" from="-231414758#2" to="77852919#0"/>
    <trip id="veh175" type="veh_passenger" depart="2993.28" departLane="best" from="231414763#0" to="231414755#2"/>
    <trip id="veh176" type="veh_passenger" depart="3010.39" departLane="best" from="-717084282#4" to="231414758#13"/>
    <trip id="veh177" type="veh_passenger" depart="3027.49" departLane="best" from="544708857" to="1050145551"/>
    <trip id="veh178" type="veh_passenger" depart="3044.60" departLane="best" from="-231414764#1" to="1076053842#1"/>
    <trip id="veh179" type="veh_passenger" depart="3061.70" departLane="best" from="-717084282#3" to="-231415002#4"/>
    <trip id="veh180" type="veh_passenger" depart="3078.81" departLane="best" departSpeed="max" from="1121695415#0" to="-717084275"/>
    <trip id="veh181" type="veh_passenger" depart="3095.91" departLane="best" from="-681862999#1" to="231415002#6"/>
    <trip id="veh182" type="veh_passenger" depart="3113.02" departLane="best" from="-279501943#1" to="320343169#1"/>
    <trip id="veh183" type="veh_passenger" depart="3130.12" departLane="best" from="1050145548" to="-544708858#0"/>
    <trip id="veh184" type="veh_passenger" depart="3147.23" departLane="best" from="-231414755#4" to="77852919#0"/>
    <trip id="veh185" type="veh_passenger" depart="3164.33" departLane="best" departSpeed="max" from="1035763355#0" to="-231414762#0"/>
    <trip id="veh186" type="veh_passenger" depart="3181.43" departLane="best" departSpeed="max" from="1121695415#0" to="231414755#1"/>
    <trip id="veh187" type="veh_passenger" depart="3198.54" departLane="best" from="-717084282#3" to="-544708858#0"/>
    <trip id="veh188" type="veh_passenger" depart="3215.64" departLane="best" from="231414764#0" to="231414764#1"/>
    <trip id="veh189" type="veh_passenger" depart="3232.75" departLane="best" from="-320343169#1" to="-717084275"/>
    <trip id="veh190" type="veh_passenger" depart="3249.85" departLane="best" from="-681862999#0" to="-717084281#2"/>
    <trip id="veh191" type="veh_passenger" depart="3266.96" departLane="best" from="231414997" to="-717084279#0"/>
    <trip id="veh192" type="veh_passenger" depart="3284.06" departLane="best" from="-231414758#4" to="681862999#0"/>
    <trip id="veh193" type="veh_passenger" depart="3301.17" departLane="best" from="544708858#1" to="681862999#1"/>
    <trip id="veh194" type="veh_passenger" depart="3318.27" departLane="best" from="-231414764#1" to="231415002#7"/>
    <trip id="veh195" type="veh_passenger" depart="3335.37" departLane="best" from="-681862999#0" to="-1076053842#0"/>
    <trip id="veh196" type="veh_passenger" depart="3352.48" departLane="best" from="717084278#0" to="77852919#0"/>
    <trip id="veh197" type="veh_passenger" depart="3369.58" departLane="best" from="231415002#0" to="-717084281#1"/>
    <trip id="veh198" type="veh_passenger" depart="3386.69" departLane="best" from="-681862999#0" to="-717084282#0"/>
    <trip id="veh199" type="veh_passenger" depart="3403.79" departLane="best" from="231414763#2" to="717084278#1"/>
    <trip id="veh200" type="veh_passenger" depart="3420.90" departLane="best" from="231414762#0" to="1121695415#1"/>
    <trip id="veh201" type="veh_passenger" depart="3438.00" departLane="best" from="-231415002#4" to="717084279#0"/>
    <trip id="veh202" type="veh_passenger" depart="3455.11" departLane="best" from="716663879" to="231414763#4"/>
    <trip id="veh203" type="veh_passenger" depart="3472.21" departLane="best" from="231414763#0" to="-717084282#0"/>
    <trip id="veh204" type="veh_passenger" depart="3489.31" departLane="best" from="-231414758#13" to="717084280"/>
    <trip id="veh205" type="veh_passenger" depart="3506.42" departLane="best" departSpeed="max" from="1035763355#0" to="-231415002#3"/>
    <trip id="veh206" type="veh_passenger" depart="3523.52" departLane="best" from="717084282#2" to="-231414763#0"/>
    <trip id="veh207" type="veh_passenger" depart="3540.63" departLane="best" from="-279501943#1" to="-231414755#5"/>
    <trip id="veh208" type="veh_passenger" depart="3557.73" departLane="best" from="231414763#1" to="231415002#4"/>
    <trip id="veh209" type="veh_passenger" depart="3574.84" departLane="best" departSpeed="max" from="1035763355#0" to="717084278#1"/>
    <trip id="veh210" type="veh_passenger" depart="3591.94" departLane="best" from="-231414755#8" to="681862999#0"/>
</routes>
