<?xml version="1.0" encoding="UTF-8"?>

<!-- generated on 2024-03-26 21:24:57 by Eclipse SUMO netedit Version 1.19.0
<configuration xmlns:xsi="http://www.w3.org/2001/XMLSchema-instance" xsi:noNamespaceSchemaLocation="http://sumo.dlr.de/xsd/neteditConfiguration.xsd">

    <input>
        <sumocfg-file value="C:\Users\rajes\Desktop\DQL_Agent_Route_Planning\RPS\environment\city\sumo_config.sumocfg"/>
        <additional-files value="C:\Users\rajes\Desktop\DQL_Agent_Route_Planning\RPS\environment\city\ChargingStations.add.xml"/>
        <route-files value="C:\Users\rajes\Desktop\DQL_Agent_Route_Planning\RPS\environment\city\episode_routes.rou.xml"/>
        <sumo-net-file value="C:\Users\rajes\Desktop\DQL_Agent_Route_Planning\RPS\environment\city\osm.net.xml"/>
    </input>

    <output>
        <output-file value="C:\Users\rajes\Desktop\DQL_Agent_Route_Planning\RPS\environment\city\osm.net.xml"/>
        <output.street-names value="true"/>
    </output>

    <processing>
        <geometry.min-radius.fix.railways value="false"/>
        <geometry.max-grade.fix value="false"/>
        <offset.disable-normalization value="true"/>
        <lefthand value="1"/>
    </processing>

    <junctions>
        <no-turnarounds value="true"/>
        <junctions.corner-detail value="5"/>
        <junctions.limit-turn-speed value="5.50"/>
        <rectangular-lane-cut value="0"/>
    </junctions>

    <pedestrian>
        <walkingareas value="0"/>
    </pedestrian>

    <netedit>
        <ignore.routeelements value="false"/>
    </netedit>

</configuration>
-->

<net version="1.16" junctionCornerDetail="5" lefthand="true" limitTurnSpeed="5.50" xmlns:xsi="http://www.w3.org/2001/XMLSchema-instance" xsi:noNamespaceSchemaLocation="http://sumo.dlr.de/xsd/net_file.xsd">

    <location netOffset="-697675.85,-3164509.59" convBoundary="0.00,0.00,18699.47,7549.61" origBoundary="77.021763,28.592219,77.213512,28.658728" projParameter="+proj=utm +zone=43 +ellps=WGS84 +datum=WGS84 +units=m +no_defs"/>

    <type id="highway.residential" priority="3" numLanes="1" speed="13.89" disallow="tram rail_urban rail rail_electric rail_fast ship" oneway="0"/>
    <type id="highway.secondary" priority="11" numLanes="1" speed="27.78" disallow="tram rail_urban rail rail_electric rail_fast ship" oneway="0"/>
    <type id="highway.service" priority="1" numLanes="1" speed="5.56" allow="pedestrian delivery bicycle" oneway="0"/>
    <type id="railway.subway" priority="18" numLanes="1" speed="27.78" allow="rail_urban" oneway="1"/>

    <edge id=":10567128512_0" function="internal">
        <lane id=":10567128512_0_0" index="0" disallow="tram rail_urban rail rail_electric rail_fast ship" speed="3.65" length="4.67" shape="13237.35,6832.09 13236.01,6831.56 13235.12,6831.68 13234.69,6832.47 13234.71,6833.91"/>
    </edge>
    <edge id=":2397564964_0" function="internal">
        <lane id=":2397564964_0_0" index="0" disallow="tram rail_urban rail rail_electric rail_fast ship" speed="3.65" length="4.67" shape="14212.59,6419.80 14213.20,6418.49 14213.13,6417.60 14212.37,6417.12 14210.93,6417.06"/>
    </edge>
    <edge id=":2397564991_0" function="internal">
        <lane id=":2397564991_0_0" index="0" disallow="tram rail_urban rail rail_electric rail_fast ship" speed="3.65" length="4.67" shape="14131.00,6291.41 14131.55,6290.08 14131.44,6289.19 14130.67,6288.75 14129.22,6288.75"/>
    </edge>
    <edge id=":2397565003_0" function="internal">
        <lane id=":2397565003_0_0" index="0" disallow="tram rail_urban rail rail_electric rail_fast ship" speed="3.65" length="4.67" shape="14148.88,6319.45 14149.44,6318.12 14149.34,6317.23 14148.57,6316.78 14147.12,6316.77"/>
    </edge>
    <edge id=":2398081982_0" function="internal">
        <lane id=":2398081982_0_0" index="0" disallow="tram rail_urban rail rail_electric rail_fast ship" speed="6.58" length="9.15" shape="13992.99,6811.85 13990.73,6812.90 13988.66,6812.98 13986.79,6812.08 13985.11,6810.21"/>
    </edge>
    <edge id=":2398081982_1" function="internal">
        <lane id=":2398081982_1_0" index="0" disallow="tram rail_urban rail rail_electric rail_fast ship" speed="13.89" length="14.45" shape="13992.99,6811.85 13980.88,6819.73"/>
    </edge>
    <edge id=":2398081982_2" function="internal">
        <lane id=":2398081982_2_0" index="0" disallow="tram rail_urban rail rail_electric rail_fast ship" speed="8.00" length="4.07" shape="13992.99,6811.85 13990.06,6814.41 13989.99,6814.57"/>
    </edge>
    <edge id=":2398081982_3" function="internal">
        <lane id=":2398081982_3_0" index="0" disallow="tram rail_urban rail rail_electric rail_fast ship" speed="3.65" length="1.44" shape="13992.99,6811.85 13992.42,6813.18"/>
    </edge>
    <edge id=":2398081982_16" function="internal">
        <lane id=":2398081982_16_0" index="0" disallow="tram rail_urban rail rail_electric rail_fast ship" speed="8.00" length="10.13" shape="13989.99,6814.57 13988.66,6817.30 13988.77,6820.50 13990.41,6824.03"/>
    </edge>
    <edge id=":2398081982_17" function="internal">
        <lane id=":2398081982_17_0" index="0" disallow="tram rail_urban rail rail_electric rail_fast ship" speed="3.65" length="3.23" shape="13992.42,6813.18 13992.52,6814.07 13993.29,6814.52 13994.74,6814.54"/>
    </edge>
    <edge id=":2398081982_4" function="internal">
        <lane id=":2398081982_4_0" index="0" disallow="tram rail_urban rail rail_electric rail_fast ship" speed="6.51" length="9.04" shape="13993.09,6822.29 13992.05,6820.04 13991.98,6818.00 13992.87,6816.17 13994.74,6814.54"/>
    </edge>
    <edge id=":2398081982_5" function="internal">
        <lane id=":2398081982_5_0" index="0" disallow="tram rail_urban rail rail_electric rail_fast ship" speed="13.89" length="14.48" shape="13993.09,6822.29 13985.11,6810.21"/>
    </edge>
    <edge id=":2398081982_6" function="internal">
        <lane id=":2398081982_6_0" index="0" disallow="tram rail_urban rail rail_electric rail_fast ship" speed="8.01" length="14.23" shape="13993.09,6822.29 13990.53,6819.36 13987.64,6817.96 13984.43,6818.08 13980.88,6819.73"/>
    </edge>
    <edge id=":2398081982_7" function="internal">
        <lane id=":2398081982_7_0" index="0" disallow="tram rail_urban rail rail_electric rail_fast ship" speed="3.65" length="4.67" shape="13993.09,6822.29 13991.77,6821.72 13990.88,6821.82 13990.43,6822.59 13990.41,6824.03"/>
    </edge>
    <edge id=":2398081982_8" function="internal">
        <lane id=":2398081982_8_0" index="0" disallow="tram rail_urban rail rail_electric rail_fast ship" speed="6.52" length="9.07" shape="13982.63,6822.41 13984.89,6821.36 13986.94,6821.28 13988.78,6822.17 13990.41,6824.03"/>
    </edge>
    <edge id=":2398081982_9" function="internal">
        <lane id=":2398081982_9_0" index="0" disallow="tram rail_urban rail rail_electric rail_fast ship" speed="13.89" length="14.45" shape="13982.63,6822.41 13994.74,6814.54"/>
    </edge>
    <edge id=":2398081982_10" function="internal">
        <lane id=":2398081982_10_0" index="0" disallow="tram rail_urban rail rail_electric rail_fast ship" speed="7.97" length="4.08" shape="13982.63,6822.41 13985.57,6819.84 13985.64,6819.69"/>
    </edge>
    <edge id=":2398081982_11" function="internal">
        <lane id=":2398081982_11_0" index="0" disallow="tram rail_urban rail rail_electric rail_fast ship" speed="3.65" length="1.44" shape="13982.63,6822.41 13983.20,6821.09"/>
    </edge>
    <edge id=":2398081982_18" function="internal">
        <lane id=":2398081982_18_0" index="0" disallow="tram rail_urban rail rail_electric rail_fast ship" speed="7.97" length="10.17" shape="13985.64,6819.69 13986.97,6816.94 13986.81,6813.74 13985.11,6810.21"/>
    </edge>
    <edge id=":2398081982_19" function="internal">
        <lane id=":2398081982_19_0" index="0" disallow="tram rail_urban rail rail_electric rail_fast ship" speed="3.65" length="3.23" shape="13983.20,6821.09 13983.09,6820.20 13982.32,6819.75 13980.88,6819.73"/>
    </edge>
    <edge id=":2398081982_12" function="internal">
        <lane id=":2398081982_12_0" index="0" disallow="tram rail_urban rail rail_electric rail_fast ship" speed="6.47" length="9.03" shape="13982.46,6812.00 13983.53,6814.23 13983.63,6816.26 13982.75,6818.10 13980.88,6819.73"/>
    </edge>
    <edge id=":2398081982_13" function="internal">
        <lane id=":2398081982_13_0" index="0" disallow="tram rail_urban rail rail_electric rail_fast ship" speed="13.89" length="14.43" shape="13982.46,6812.00 13990.41,6824.03"/>
    </edge>
    <edge id=":2398081982_14" function="internal">
        <lane id=":2398081982_14_0" index="0" disallow="tram rail_urban rail rail_electric rail_fast ship" speed="8.06" length="14.25" shape="13982.46,6812.00 13985.07,6814.90 13987.99,6816.29 13991.21,6816.17 13994.74,6814.54"/>
    </edge>
    <edge id=":2398081982_15" function="internal">
        <lane id=":2398081982_15_0" index="0" disallow="tram rail_urban rail rail_electric rail_fast ship" speed="3.65" length="4.67" shape="13982.46,6812.00 13983.79,6812.55 13984.68,6812.43 13985.12,6811.65 13985.11,6810.21"/>
    </edge>
    <edge id=":2398081983_0" function="internal">
        <lane id=":2398081983_0_0" index="0" disallow="tram rail_urban rail rail_electric rail_fast ship" speed="13.89" length="14.40" shape="13495.85,6739.54 13483.77,6747.38"/>
    </edge>
    <edge id=":2398081983_1" function="internal">
        <lane id=":2398081983_1_0" index="0" disallow="tram rail_urban rail rail_electric rail_fast ship" speed="7.99" length="4.07" shape="13495.85,6739.54 13492.91,6742.11 13492.84,6742.26"/>
    </edge>
    <edge id=":2398081983_2" function="internal">
        <lane id=":2398081983_2_0" index="0" disallow="tram rail_urban rail rail_electric rail_fast ship" speed="3.65" length="1.44" shape="13495.85,6739.54 13495.28,6740.87"/>
    </edge>
    <edge id=":2398081983_9" function="internal">
        <lane id=":2398081983_9_0" index="0" disallow="tram rail_urban rail rail_electric rail_fast ship" speed="7.99" length="10.15" shape="13492.84,6742.26 13491.51,6745.00 13491.64,6748.20 13493.31,6751.73"/>
    </edge>
    <edge id=":2398081983_10" function="internal">
        <lane id=":2398081983_10_0" index="0" disallow="tram rail_urban rail rail_electric rail_fast ship" speed="3.65" length="3.23" shape="13495.28,6740.87 13495.38,6741.76 13496.15,6742.21 13497.59,6742.23"/>
    </edge>
    <edge id=":2398081983_3" function="internal">
        <lane id=":2398081983_3_0" index="0" disallow="tram rail_urban rail rail_electric rail_fast ship" speed="6.49" length="9.03" shape="13495.98,6749.97 13494.92,6747.73 13494.83,6745.69 13495.73,6743.86 13497.59,6742.23"/>
    </edge>
    <edge id=":2398081983_4" function="internal">
        <lane id=":2398081983_4_0" index="0" disallow="tram rail_urban rail rail_electric rail_fast ship" speed="8.03" length="14.20" shape="13495.98,6749.97 13493.39,6747.05 13490.50,6745.64 13487.29,6745.76 13483.77,6747.38"/>
    </edge>
    <edge id=":2398081983_5" function="internal">
        <lane id=":2398081983_5_0" index="0" disallow="tram rail_urban rail rail_electric rail_fast ship" speed="3.65" length="4.67" shape="13495.98,6749.97 13494.65,6749.41 13493.76,6749.51 13493.31,6750.29 13493.31,6751.73"/>
    </edge>
    <edge id=":2398081983_6" function="internal">
        <lane id=":2398081983_6_0" index="0" disallow="tram rail_urban rail rail_electric rail_fast ship" speed="6.54" length="9.07" shape="13485.51,6750.07 13487.76,6749.03 13489.80,6748.96 13491.65,6749.86 13493.31,6751.73"/>
    </edge>
    <edge id=":2398081983_7" function="internal">
        <lane id=":2398081983_7_0" index="0" disallow="tram rail_urban rail rail_electric rail_fast ship" speed="13.89" length="14.40" shape="13485.51,6750.07 13497.59,6742.23"/>
    </edge>
    <edge id=":2398081983_8" function="internal">
        <lane id=":2398081983_8_0" index="0" disallow="tram rail_urban rail rail_electric rail_fast ship" speed="3.65" length="1.44" shape="13485.51,6750.07 13486.08,6748.74"/>
    </edge>
    <edge id=":2398081983_11" function="internal">
        <lane id=":2398081983_11_0" index="0" disallow="tram rail_urban rail rail_electric rail_fast ship" speed="3.65" length="3.23" shape="13486.08,6748.74 13485.98,6747.86 13485.21,6747.40 13483.77,6747.38"/>
    </edge>
    <edge id=":2398081993_0" function="internal">
        <lane id=":2398081993_0_0" index="0" disallow="tram rail_urban rail rail_electric rail_fast ship" speed="6.27" length="9.04" shape="13891.22,6484.32 13888.93,6485.39 13886.93,6485.41 13885.21,6484.38 13883.77,6482.31"/>
    </edge>
    <edge id=":2398081993_1" function="internal">
        <lane id=":2398081993_1_0" index="0" disallow="tram rail_urban rail rail_electric rail_fast ship" speed="13.89" length="14.78" shape="13891.22,6484.32 13878.85,6492.42"/>
    </edge>
    <edge id=":2398081993_2" function="internal">
        <lane id=":2398081993_2_0" index="0" disallow="tram rail_urban rail rail_electric rail_fast ship" speed="8.07" length="4.25" shape="13891.22,6484.32 13888.15,6486.99 13888.07,6487.15"/>
    </edge>
    <edge id=":2398081993_3" function="internal">
        <lane id=":2398081993_3_0" index="0" disallow="tram rail_urban rail rail_electric rail_fast ship" speed="3.65" length="1.44" shape="13891.22,6484.32 13890.65,6485.65"/>
    </edge>
    <edge id=":2398081993_16" function="internal">
        <lane id=":2398081993_16_0" index="0" disallow="tram rail_urban rail rail_electric rail_fast ship" speed="8.07" length="10.27" shape="13888.07,6487.15 13886.66,6489.94 13886.74,6493.19 13888.39,6496.72"/>
    </edge>
    <edge id=":2398081993_17" function="internal">
        <lane id=":2398081993_17_0" index="0" disallow="tram rail_urban rail rail_electric rail_fast ship" speed="3.65" length="3.23" shape="13890.65,6485.65 13890.75,6486.54 13891.53,6486.99 13892.97,6487.00"/>
    </edge>
    <edge id=":2398081993_4" function="internal">
        <lane id=":2398081993_4_0" index="0" disallow="tram rail_urban rail rail_electric rail_fast ship" speed="6.60" length="9.34" shape="13891.05,6494.95 13890.01,6492.70 13889.99,6490.63 13890.97,6488.73 13892.97,6487.00"/>
    </edge>
    <edge id=":2398081993_5" function="internal">
        <lane id=":2398081993_5_0" index="0" disallow="tram rail_urban rail rail_electric rail_fast ship" speed="13.89" length="14.60" shape="13891.05,6494.95 13889.07,6491.85 13887.22,6488.75 13885.47,6485.59 13883.77,6482.31"/>
    </edge>
    <edge id=":2398081993_6" function="internal">
        <lane id=":2398081993_6_0" index="0" disallow="tram rail_urban rail rail_electric rail_fast ship" speed="8.02" length="14.20" shape="13891.05,6494.95 13888.47,6492.04 13885.57,6490.65 13882.37,6490.77 13878.85,6492.42"/>
    </edge>
    <edge id=":2398081993_7" function="internal">
        <lane id=":2398081993_7_0" index="0" disallow="tram rail_urban rail rail_electric rail_fast ship" speed="3.65" length="4.67" shape="13891.05,6494.95 13889.73,6494.40 13888.84,6494.50 13888.39,6495.28 13888.39,6496.72"/>
    </edge>
    <edge id=":2398081993_8" function="internal">
        <lane id=":2398081993_8_0" index="0" disallow="tram rail_urban rail rail_electric rail_fast ship" speed="6.53" length="9.06" shape="13880.61,6495.09 13882.85,6494.05 13884.89,6493.97 13886.74,6494.86 13888.39,6496.72"/>
    </edge>
    <edge id=":2398081993_9" function="internal">
        <lane id=":2398081993_9_0" index="0" disallow="tram rail_urban rail rail_electric rail_fast ship" speed="13.89" length="14.78" shape="13880.61,6495.09 13892.97,6487.00"/>
    </edge>
    <edge id=":2398081993_10" function="internal">
        <lane id=":2398081993_10_0" index="0" disallow="tram rail_urban rail rail_electric rail_fast ship" speed="8.48" length="4.05" shape="13880.61,6495.09 13883.50,6492.53 13883.58,6492.37"/>
    </edge>
    <edge id=":2398081993_11" function="internal">
        <lane id=":2398081993_11_0" index="0" disallow="tram rail_urban rail rail_electric rail_fast ship" speed="3.65" length="1.44" shape="13880.61,6495.09 13881.17,6493.77"/>
    </edge>
    <edge id=":2398081993_18" function="internal">
        <lane id=":2398081993_18_0" index="0" disallow="tram rail_urban rail rail_electric rail_fast ship" speed="8.48" length="10.61" shape="13883.58,6492.37 13885.00,6489.54 13885.09,6486.14 13883.77,6482.31"/>
    </edge>
    <edge id=":2398081993_19" function="internal">
        <lane id=":2398081993_19_0" index="0" disallow="tram rail_urban rail rail_electric rail_fast ship" speed="3.65" length="3.23" shape="13881.17,6493.77 13881.07,6492.88 13880.29,6492.43 13878.85,6492.42"/>
    </edge>
    <edge id=":2398081993_12" function="internal">
        <lane id=":2398081993_12_0" index="0" disallow="tram rail_urban rail rail_electric rail_fast ship" speed="7.08" length="9.92" shape="13880.91,6483.75 13881.82,6486.36 13881.78,6488.67 13880.79,6490.69 13878.85,6492.42"/>
    </edge>
    <edge id=":2398081993_13" function="internal">
        <lane id=":2398081993_13_0" index="0" disallow="tram rail_urban rail rail_electric rail_fast ship" speed="13.89" length="14.98" shape="13880.91,6483.75 13882.63,6487.07 13884.45,6490.35 13886.37,6493.56 13888.39,6496.72"/>
    </edge>
    <edge id=":2398081993_14" function="internal">
        <lane id=":2398081993_14_0" index="0" disallow="tram rail_urban rail rail_electric rail_fast ship" speed="7.81" length="14.65" shape="13880.91,6483.75 13883.24,6487.10 13886.03,6488.76 13889.27,6488.72 13892.97,6487.00"/>
    </edge>
    <edge id=":2398081993_15" function="internal">
        <lane id=":2398081993_15_0" index="0" disallow="tram rail_urban rail rail_electric rail_fast ship" speed="3.65" length="4.67" shape="13880.91,6483.75 13882.16,6484.46 13883.06,6484.46 13883.59,6483.75 13883.77,6482.31"/>
    </edge>
    <edge id=":2398081996_0" function="internal">
        <lane id=":2398081996_0_0" index="0" disallow="tram rail_urban rail rail_electric rail_fast ship" speed="6.39" length="9.04" shape="13709.45,6562.56 13707.18,6563.59 13705.16,6563.62 13703.39,6562.65 13701.87,6560.67"/>
    </edge>
    <edge id=":2398081996_1" function="internal">
        <lane id=":2398081996_1_0" index="0" disallow="tram rail_urban rail rail_electric rail_fast ship" speed="8.22" length="14.26" shape="13709.45,6562.56 13706.44,6565.12 13704.87,6568.01 13704.74,6571.23 13706.06,6574.79"/>
    </edge>
    <edge id=":2398081996_2" function="internal">
        <lane id=":2398081996_2_0" index="0" disallow="tram rail_urban rail rail_electric rail_fast ship" speed="3.65" length="4.67" shape="13709.45,6562.56 13708.88,6563.88 13708.97,6564.77 13709.74,6565.23 13711.18,6565.25"/>
    </edge>
    <edge id=":2398081996_3" function="internal">
        <lane id=":2398081996_3_0" index="0" disallow="tram rail_urban rail rail_electric rail_fast ship" speed="6.77" length="9.35" shape="13708.87,6573.25 13708.02,6570.94 13708.12,6568.84 13709.18,6566.94 13711.18,6565.25"/>
    </edge>
    <edge id=":2398081996_4" function="internal">
        <lane id=":2398081996_4_0" index="0" disallow="tram rail_urban rail rail_electric rail_fast ship" speed="13.89" length="14.39" shape="13708.87,6573.25 13701.87,6560.67"/>
    </edge>
    <edge id=":2398081996_5" function="internal">
        <lane id=":2398081996_5_0" index="0" disallow="tram rail_urban rail rail_electric rail_fast ship" speed="3.65" length="1.44" shape="13708.87,6573.25 13707.59,6572.58"/>
    </edge>
    <edge id=":2398081996_9" function="internal">
        <lane id=":2398081996_9_0" index="0" disallow="tram rail_urban rail rail_electric rail_fast ship" speed="3.65" length="3.23" shape="13707.59,6572.58 13706.69,6572.61 13706.19,6573.35 13706.06,6574.79"/>
    </edge>
    <edge id=":2398081996_6" function="internal">
        <lane id=":2398081996_6_0" index="0" disallow="tram rail_urban rail rail_electric rail_fast ship" speed="13.89" length="14.36" shape="13699.08,6562.24 13706.06,6574.79"/>
    </edge>
    <edge id=":2398081996_7" function="internal">
        <lane id=":2398081996_7_0" index="0" disallow="tram rail_urban rail rail_electric rail_fast ship" speed="7.90" length="3.98" shape="13699.08,6562.24 13701.51,6565.40"/>
    </edge>
    <edge id=":2398081996_8" function="internal">
        <lane id=":2398081996_8_0" index="0" disallow="tram rail_urban rail rail_electric rail_fast ship" speed="3.65" length="1.44" shape="13699.08,6562.24 13700.36,6562.89"/>
    </edge>
    <edge id=":2398081996_10" function="internal">
        <lane id=":2398081996_10_0" index="0" disallow="tram rail_urban rail rail_electric rail_fast ship" speed="7.90" length="10.43" shape="13701.51,6565.40 13704.33,6566.95 13707.56,6566.90 13711.18,6565.25"/>
    </edge>
    <edge id=":2398081996_11" function="internal">
        <lane id=":2398081996_11_0" index="0" disallow="tram rail_urban rail rail_electric rail_fast ship" speed="3.65" length="3.23" shape="13700.36,6562.89 13701.26,6562.85 13701.76,6562.11 13701.87,6560.67"/>
    </edge>
    <edge id=":2398081997_0" function="internal">
        <lane id=":2398081997_0_0" index="0" disallow="tram rail_urban rail rail_electric rail_fast ship" speed="3.65" length="4.67" shape="14285.16,7100.40 14286.49,7100.95 14287.38,7100.84 14287.82,7100.06 14287.82,7098.62"/>
    </edge>
    <edge id=":2398082002_0" function="internal">
        <lane id=":2398082002_0_0" index="0" disallow="tram rail_urban rail rail_electric rail_fast ship" speed="6.30" length="9.04" shape="13843.76,6589.82 13841.50,6590.93 13839.50,6590.99 13837.74,6590.01 13836.24,6588.00"/>
    </edge>
    <edge id=":2398082002_1" function="internal">
        <lane id=":2398082002_1_0" index="0" disallow="tram rail_urban rail rail_electric rail_fast ship" speed="8.08" length="14.46" shape="13843.76,6589.82 13840.77,6592.52 13839.33,6595.49 13839.45,6598.73 13841.13,6602.24"/>
    </edge>
    <edge id=":2398082002_2" function="internal">
        <lane id=":2398082002_2_0" index="0" disallow="tram rail_urban rail rail_electric rail_fast ship" speed="3.65" length="4.67" shape="13843.76,6589.82 13843.22,6591.16 13843.34,6592.05 13844.12,6592.48 13845.56,6592.47"/>
    </edge>
    <edge id=":2398082002_3" function="internal">
        <lane id=":2398082002_3_0" index="0" disallow="tram rail_urban rail rail_electric rail_fast ship" speed="6.60" length="9.31" shape="13843.78,6600.44 13842.72,6598.21 13842.66,6596.13 13843.61,6594.22 13845.56,6592.47"/>
    </edge>
    <edge id=":2398082002_4" function="internal">
        <lane id=":2398082002_4_0" index="0" disallow="tram rail_urban rail rail_electric rail_fast ship" speed="13.89" length="14.56" shape="13843.78,6600.44 13841.76,6597.37 13839.86,6594.31 13838.03,6591.21 13836.24,6588.00"/>
    </edge>
    <edge id=":2398082002_5" function="internal">
        <lane id=":2398082002_5_0" index="0" disallow="tram rail_urban rail rail_electric rail_fast ship" speed="3.65" length="1.44" shape="13843.78,6600.44 13842.45,6599.90"/>
    </edge>
    <edge id=":2398082002_9" function="internal">
        <lane id=":2398082002_9_0" index="0" disallow="tram rail_urban rail rail_electric rail_fast ship" speed="3.65" length="3.23" shape="13842.45,6599.90 13841.56,6600.01 13841.12,6600.79 13841.13,6602.24"/>
    </edge>
    <edge id=":2398082002_6" function="internal">
        <lane id=":2398082002_6_0" index="0" disallow="tram rail_urban rail rail_electric rail_fast ship" speed="13.89" length="14.87" shape="13833.43,6589.53 13835.24,6592.78 13837.12,6595.97 13839.08,6599.12 13841.13,6602.24"/>
    </edge>
    <edge id=":2398082002_7" function="internal">
        <lane id=":2398082002_7_0" index="0" disallow="tram rail_urban rail rail_electric rail_fast ship" speed="7.83" length="4.25" shape="13833.43,6589.53 13835.85,6592.77 13836.02,6592.87"/>
    </edge>
    <edge id=":2398082002_8" function="internal">
        <lane id=":2398082002_8_0" index="0" disallow="tram rail_urban rail rail_electric rail_fast ship" speed="3.65" length="1.44" shape="13833.43,6589.53 13834.70,6590.20"/>
    </edge>
    <edge id=":2398082002_10" function="internal">
        <lane id=":2398082002_10_0" index="0" disallow="tram rail_urban rail rail_electric rail_fast ship" speed="7.83" length="10.33" shape="13836.02,6592.87 13838.68,6594.35 13841.92,6594.25 13845.56,6592.47"/>
    </edge>
    <edge id=":2398082002_11" function="internal">
        <lane id=":2398082002_11_0" index="0" disallow="tram rail_urban rail rail_electric rail_fast ship" speed="3.65" length="3.23" shape="13834.70,6590.20 13835.60,6590.17 13836.11,6589.43 13836.24,6588.00"/>
    </edge>
    <edge id=":2398082009_0" function="internal">
        <lane id=":2398082009_0_0" index="0" disallow="tram rail_urban rail rail_electric rail_fast ship" speed="6.34" length="9.04" shape="13725.97,6592.53 13723.70,6593.58 13721.69,6593.62 13719.93,6592.64 13718.42,6590.64"/>
    </edge>
    <edge id=":2398082009_1" function="internal">
        <lane id=":2398082009_1_0" index="0" disallow="tram rail_urban rail rail_electric rail_fast ship" speed="13.89" length="14.68" shape="13725.97,6592.53 13713.64,6600.49"/>
    </edge>
    <edge id=":2398082009_2" function="internal">
        <lane id=":2398082009_2_0" index="0" disallow="tram rail_urban rail rail_electric rail_fast ship" speed="8.16" length="4.13" shape="13725.97,6592.53 13722.96,6595.15 13722.90,6595.28"/>
    </edge>
    <edge id=":2398082009_3" function="internal">
        <lane id=":2398082009_3_0" index="0" disallow="tram rail_urban rail rail_electric rail_fast ship" speed="3.65" length="1.44" shape="13725.97,6592.53 13725.41,6593.85"/>
    </edge>
    <edge id=":2398082009_16" function="internal">
        <lane id=":2398082009_16_0" index="0" disallow="tram rail_urban rail rail_electric rail_fast ship" speed="8.16" length="10.34" shape="13722.90,6595.28 13721.47,6598.10 13721.50,6601.37 13723.05,6604.96"/>
    </edge>
    <edge id=":2398082009_17" function="internal">
        <lane id=":2398082009_17_0" index="0" disallow="tram rail_urban rail rail_electric rail_fast ship" speed="3.65" length="3.23" shape="13725.41,6593.85 13725.51,6594.74 13726.28,6595.19 13727.73,6595.20"/>
    </edge>
    <edge id=":2398082009_4" function="internal">
        <lane id=":2398082009_4_0" index="0" disallow="tram rail_urban rail rail_electric rail_fast ship" speed="6.69" length="9.42" shape="13725.77,6603.28 13724.78,6600.96 13724.77,6598.84 13725.75,6596.92 13727.73,6595.20"/>
    </edge>
    <edge id=":2398082009_5" function="internal">
        <lane id=":2398082009_5_0" index="0" disallow="tram rail_urban rail rail_electric rail_fast ship" speed="13.89" length="14.62" shape="13725.77,6603.28 13718.42,6590.64"/>
    </edge>
    <edge id=":2398082009_6" function="internal">
        <lane id=":2398082009_6_0" index="0" disallow="tram rail_urban rail rail_electric rail_fast ship" speed="7.98" length="14.25" shape="13725.77,6603.28 13723.27,6600.27 13720.41,6598.81 13717.20,6598.88 13713.64,6600.49"/>
    </edge>
    <edge id=":2398082009_7" function="internal">
        <lane id=":2398082009_7_0" index="0" disallow="tram rail_urban rail rail_electric rail_fast ship" speed="3.65" length="4.67" shape="13725.77,6603.28 13724.46,6602.68 13723.57,6602.76 13723.10,6603.52 13723.05,6604.96"/>
    </edge>
    <edge id=":2398082009_8" function="internal">
        <lane id=":2398082009_8_0" index="0" disallow="tram rail_urban rail rail_electric rail_fast ship" speed="6.48" length="9.03" shape="13715.35,6603.19 13717.61,6602.17 13719.65,6602.12 13721.46,6603.05 13723.05,6604.96"/>
    </edge>
    <edge id=":2398082009_9" function="internal">
        <lane id=":2398082009_9_0" index="0" disallow="tram rail_urban rail rail_electric rail_fast ship" speed="13.89" length="14.72" shape="13715.35,6603.19 13727.73,6595.20"/>
    </edge>
    <edge id=":2398082009_10" function="internal">
        <lane id=":2398082009_10_0" index="0" disallow="tram rail_urban rail rail_electric rail_fast ship" speed="8.28" length="4.12" shape="13715.35,6603.19 13718.31,6600.64 13718.41,6600.45"/>
    </edge>
    <edge id=":2398082009_11" function="internal">
        <lane id=":2398082009_11_0" index="0" disallow="tram rail_urban rail rail_electric rail_fast ship" speed="3.65" length="1.44" shape="13715.35,6603.19 13715.94,6601.87"/>
    </edge>
    <edge id=":2398082009_18" function="internal">
        <lane id=":2398082009_18_0" index="0" disallow="tram rail_urban rail rail_electric rail_fast ship" speed="8.28" length="10.40" shape="13718.41,6600.45 13719.81,6597.70 13719.85,6594.37 13718.42,6590.64"/>
    </edge>
    <edge id=":2398082009_19" function="internal">
        <lane id=":2398082009_19_0" index="0" disallow="tram rail_urban rail rail_electric rail_fast ship" speed="3.65" length="3.23" shape="13715.94,6601.87 13715.85,6600.98 13715.08,6600.52 13713.64,6600.49"/>
    </edge>
    <edge id=":2398082009_12" function="internal">
        <lane id=":2398082009_12_0" index="0" disallow="tram rail_urban rail rail_electric rail_fast ship" speed="6.84" length="9.60" shape="13715.62,6592.18 13716.57,6594.66 13716.56,6596.87 13715.58,6598.81 13713.64,6600.49"/>
    </edge>
    <edge id=":2398082009_13" function="internal">
        <lane id=":2398082009_13_0" index="0" disallow="tram rail_urban rail rail_electric rail_fast ship" speed="13.89" length="14.78" shape="13715.62,6592.18 13723.05,6604.96"/>
    </edge>
    <edge id=":2398082009_14" function="internal">
        <lane id=":2398082009_14_0" index="0" disallow="tram rail_urban rail rail_electric rail_fast ship" speed="7.87" length="14.50" shape="13715.62,6592.18 13718.03,6595.39 13720.86,6596.96 13724.09,6596.90 13727.73,6595.20"/>
    </edge>