<!-- <?xml version="1.0" encoding="UTF-8"?> -->

<!-- generated on 2024-04-15 15:22:03.192780 by randomTrips.py v1_19_0+0000-baa66a0f364
<configuration>
    <net-file value="E:\DQL_Agent_Route_Planning\RPS\environment\city\osm.net.xml"/>
    <additional-files value="E:\DQL_Agent_Route_Planning\RPS\environment\city\ChargingStations.add.xml"/>
    <route-file value="E:\DQL_Agent_Route_Planning\RPS\environment\city\episode_routes.rou.xml"/>
</configuration>
-->

<routes>


    <vType id="ev" color="red">
        <param key="has.battery.device" value="true"/>
    </vType>

    <trip id="0" depart="0.00" from="231414758#5" to="-1050145551"/>
    <route id="r_0" edges="231414763#0 231414763#1 231414763#2 231414763#3 e1_l1 e2_l1 231414758#2 231414758#4 231414758#5 231414758#7 231414758#9 -231414762#1 -231414762#0"/>
    <trip id="1" depart="1.00" from="-231415002#7" to="-231414998#1"/>
    <trip id="2" depart="2.00" from="231415002#0" to="231414763#3"/>
    <trip id="3" depart="3.00" from="717084275" to="-231414755#8"/>
    <trip id="4" depart="4.00" from="-717084278#0" to="-1075653171"/>
    <trip id="5" depart="5.00" from="-231414998#0" to="1050145547"/>
    <trip id="6" depart="6.00" from="-1050145551" to="-231414763#5"/>
    <trip id="7" depart="7.00" from="231414758#9" to="1121695415#1"/>
    <trip id="8" depart="8.00" from="-231414998#0" to="231414755#7"/>
    <trip id="9" depart="9.00" from="544708856#2" to="-1050145548"/>
    <trip id="10" depart="10.00" from="320343169#1" to="231414764#0"/>
    <trip id="11" depart="11.00" from="-544708858#0" to="-231414762#0"/>
    <trip id="12" depart="12.00" from="717084282#0" to="-544708858#0"/>
    <trip id="13" depart="13.00" from="-231414758#0" to="-231414758#1"/>
    <trip id="2141" depart="2141.00" from="231414755#3" to="544709343"/>
    <trip id="2142" depart="2142.00" from="-231414755#5" to="-231414762#1"/>
    <trip id="2143" depart="2143.00" from="-231414998#2" to="-544708856#2"/>
    <trip id="2144" depart="2144.00" from="-279501943#1" to="-231415002#6"/>
    <trip id="2145" depart="2145.00" from="231414758#7" to="-231415002#6"/>
    <trip id="2146" depart="2146.00" from="-717084280" to="681862999#1"/>
    <trip id="2147" depart="2147.00" from="-544709343" to="231414755#7"/>
    <trip id="2148" depart="2148.00" from="717084282#1" to="-717084276"/>
    <trip id="2149" depart="2149.00" from="-231414763#3" to="-1050145551"/>
    <trip id="2150" depart="2150.00" from="231414998#2" to="231414763#0"/>
    <trip id="2151" depart="2151.00" from="717084281#0" to="231414764#1"/>
    <trip id="2152" depart="2152.00" from="-231414755#7" to="-231414763#0"/>
    <trip id="2153" depart="2153.00" from="-231414758#10" to="-231414755#4"/>
    <trip id="2154" depart="2154.00" from="716405864#0" to="231414755#0"/>
    <trip id="2155" depart="2155.00" from="-1050145551" to="-716405864#1"/>
    <trip id="2156" depart="2156.00" from="231415002#5" to="-231414755#7"/>
    <trip id="2157" depart="2157.00" from="-231415002#5" to="-231414762#0"/>
    <trip id="2158" depart="2158.00" from="231414762#0" to="716663879"/>
    <trip id="2159" depart="2159.00" from="-544708856#0" to="-231415002#2"/>
    <trip id="2160" depart="2160.00" from="-279501943#0" to="231414758#4"/>
    <trip id="2161" depart="2161.00" from="-231414758#4" to="544708859"/>
    <trip id="2162" depart="2162.00" from="-1075653171" to="231414763#0"/>
    <trip id="2163" depart="2163.00" from="681862999#0" to="-544708856#5"/>
    <trip id="2164" depart="2164.00" from="-717084282#1" to="717084282#4"/>
    <trip id="2165" depart="2165.00" from="1076053842#1" to="-231415002#6"/>
    <trip id="2166" depart="2166.00" from="-717084280" to="717084282#3"/>
    <trip id="2167" depart="2167.00" from="231414763#5" to="-231414763#2"/>
    <trip id="2168" depart="2168.00" from="231414755#8" to="231414758#5"/>
    <trip id="2169" depart="2169.00" from="231414758#4" to="231414755#3"/>
    <trip id="2170" depart="2170.00" from="1050145550" to="231414758#7"/>
    <trip id="2171" depart="2171.00" from="-544708856#0" to="-544708859"/>
    <trip id="2172" depart="2172.00" from="1075653171" to="544708856#2"/>
    <trip id="2173" depart="2173.00" from="-717084279#1" to="-544709344"/>
    <trip id="2174" depart="2174.00" from="-231415002#4" to="-320343169#1"/>
    <trip id="2175" depart="2175.00" from="-1050145547" to="544708856#5"/>
    <trip id="2176" depart="2176.00" from="544709342" to="-544708858#1"/>
    <trip id="2177" depart="2177.00" from="-717084282#0" to="-1050145548"/>
    <trip id="2178" depart="2178.00" from="717084279#0" to="717084281#2"/>
    <trip id="2179" depart="2179.00" from="-717084282#1" to="-1050145548"/>
    <trip id="2180" depart="2180.00" from="-717084278#1" to="-279501943#1"/>
    <trip id="2181" depart="2181.00" from="-231414998#2" to="-1050145548"/>
    <trip id="2182" depart="2182.00" from="-681862999#0" to="-717084276"/>
    <trip id="2183" depart="2183.00" from="231414755#1" to="-716405864#1"/>
    <trip id="2184" depart="2184.00" from="-231414762#1" to="231415002#1"/>
    <trip id="2185" depart="2185.00" from="-716405864#0" to="-681862999#1"/>
    <trip id="3507" depart="3507.00" from="231414755#6" to="1050145550"/>
    <trip id="3508" depart="3508.00" from="-716405864#1" to="-231415002#5"/>
    <trip id="3509" depart="3509.00" from="-717084282#5" to="-717084278#0"/>
    <trip id="3510" depart="3510.00" from="-717084279#1" to="717084280"/>
    <trip id="3511" depart="3511.00" from="-717084282#4" to="717084282#4"/>
    <trip id="3512" depart="3512.00" from="544708856#5" to="-231414758#7"/>
    <trip id="3513" depart="3513.00" from="-231414758#2" to="231414998#0"/>
    <trip id="3514" depart="3514.00" from="-231414758#2" to="231414764#1"/>
    <trip id="3515" depart="3515.00" from="681862999#0" to="-231414758#12"/>
    <trip id="3516" depart="3516.00" from="-231414997" to="-717084282#1"/>
    <trip id="3517" depart="3517.00" from="231415002#2" to="717084281#2"/>
    <trip id="3518" depart="3518.00" from="-681862999#0" to="717084282#0"/>
    <trip id="3519" depart="3519.00" from="231414755#8" to="-717084275"/>
    <trip id="3520" depart="3520.00" from="-231414758#13" to="231414755#4"/>
    <trip id="3521" depart="3521.00" from="-231414755#0" to="-231414758#9"/>
    <trip id="3522" depart="3522.00" from="-681862999#0" to="e1_l1"/>
    <trip id="3523" depart="3523.00" from="-320343169#1" to="-717084282#3"/>
    <trip id="3524" depart="3524.00" from="279501943#1" to="-231414758#7"/>
    <trip id="3525" depart="3525.00" from="231414755#6" to="-231414755#1"/>
    <trip id="3526" depart="3526.00" from="717084275" to="717084275"/>
    <trip id="3527" depart="3527.00" from="-231414997" to="544708857"/>
    <trip id="3528" depart="3528.00" from="-717084282#4" to="-231414758#13"/>
    <trip id="3529" depart="3529.00" from="-544708859" to="716405864#0"/>
    <trip id="3530" depart="3530.00" from="-717084277" to="231414755#4"/>
    <trip id="3531" depart="3531.00" from="231414755#2" to="717084277"/>
    <trip id="3532" depart="3532.00" from="231415004" to="-717084282#1"/>
    <trip id="3533" depart="3533.00" from="231414998#0" to="231414758#11"/>
    <trip id="3534" depart="3534.00" from="231415002#5" to="1050145547"/>
    <trip id="3535" depart="3535.00" from="-717084281#2" to="-717084281#0"/>
    <trip id="3536" depart="3536.00" from="-717084281#0" to="706561232#1"/>
    <trip id="3537" depart="3537.00" from="-544708856#5" to="320343169#1"/>
    <trip id="3538" depart="3538.00" from="231414762#1" to="-717084276"/>
    <trip id="3539" depart="3539.00" from="-231414998#2" to="-716405864#1"/>
    <trip id="3540" depart="3540.00" from="1076053842#1" to="717084282#1"/>
    <trip id="3541" depart="3541.00" from="716663879" to="231415002#1"/>
    <trip id="3542" depart="3542.00" from="231414758#7" to="706561232#1"/>
    <trip id="3543" depart="3543.00" from="231414764#1" to="231414755#4"/>
    <trip id="3544" depart="3544.00" from="320343169#0" to="231414997"/>
    <trip id="3545" depart="3545.00" from="231414755#1" to="-231414758#13"/>
    <trip id="3546" depart="3546.00" from="231414755#1" to="-231414763#4"/>
    <trip id="3547" depart="3547.00" from="231414758#12" to="231414755#5"/>
    <trip id="3548" depart="3548.00" from="-231414755#2" to="231414755#4"/>
    <trip id="3549" depart="3549.00" from="-231414763#4" to="-717084282#1"/>
    <trip id="3550" depart="3550.00" from="717084275" to="-231414758#13"/>
    <trip id="3551" depart="3551.00" from="717084280" to="-231414763#2"/>
    <trip id="3552" depart="3552.00" from="-1050145550" to="279501943#1"/>
    <trip id="3553" depart="3553.00" from="-231415002#2" to="231414997"/>
    <trip id="3554" depart="3554.00" from="716663879" to="-717084280"/>
    <trip id="3555" depart="3555.00" from="544708856#2" to="231414758#11"/>
    <trip id="3556" depart="3556.00" from="-716663879" to="-231414755#0"/>
    <trip id="3557" depart="3557.00" from="681862999#0" to="-1050145551"/>
    <trip id="3558" depart="3558.00" from="-717084279#0" to="-717084277"/>
    <trip id="3559" depart="3559.00" from="681862999#0" to="-544708856#2"/>
    <trip id="3560" depart="3560.00" from="-231415002#4" to="-231414758#12"/>
    <trip id="3561" depart="3561.00" from="-231414758#1" to="-231414763#0"/>
    <trip id="3562" depart="3562.00" from="-231414758#7" to="-231415002#3"/>
    <trip id="3563" depart="3563.00" from="-231414755#8" to="-320343169#1"/>
    <trip id="3564" depart="3564.00" from="-717084275" to="-231414763#0"/>
    <trip id="3565" depart="3565.00" from="231414758#12" to="-544708856#5"/>
    <trip id="3566" depart="3566.00" from="-1050145551" to="-231414755#3"/>
    <trip id="3567" depart="3567.00" from="-716405864#0" to="-544708856#4"/>
    <trip id="3568" depart="3568.00" from="-717084276" to="-544708856#5"/>
    <trip id="3569" depart="3569.00" from="-681862999#1" to="544708858#0"/>
    <trip id="3570" depart="3570.00" from="-231414758#13" to="-231414764#0"/>
    <trip id="3571" depart="3571.00" from="231415002#3" to="231414755#7"/>
    <trip id="3572" depart="3572.00" from="-717084282#4" to="231415002#4"/>
    <trip id="3573" depart="3573.00" from="-706561232#0" to="-231414758#12"/>
    <trip id="3574" depart="3574.00" from="-231414755#3" to="-717084281#2"/>
    <trip id="3575" depart="3575.00" from="-717084275" to="-717084282#3"/>
    <trip id="3576" depart="3576.00" from="-717084275" to="-231415002#0"/>
    <trip id="3577" depart="3577.00" from="716405864#1" to="-231415002#6"/>
    <trip id="3578" depart="3578.00" from="717084282#1" to="231414763#2"/>
    <trip id="3579" depart="3579.00" from="-231415002#2" to="231414755#1"/>
    <trip id="3580" depart="3580.00" from="279501943#0" to="-320343169#1"/>
    <trip id="3581" depart="3581.00" from="-717084275" to="-231414755#7"/>
    <trip id="3582" depart="3582.00" from="231414758#4" to="-231414764#0"/>
    <trip id="3583" depart="3583.00" from="717084282#2" to="-681862999#0"/>
    <trip id="3584" depart="3584.00" from="717084282#5" to="279501943#0"/>
    <trip id="3585" depart="3585.00" from="1075653171" to="-717084278#0"/>
    <trip id="3586" depart="3586.00" from="717084278#0" to="-717084281#0"/>
    <trip id="3587" depart="3587.00" from="-1050145547" to="-717084281#2"/>
    <trip id="3588" depart="3588.00" from="544708857" to="-279501943#0"/>
    <trip id="3589" depart="3589.00" from="717084282#3" to="-1050145547"/>
    <trip id="3590" depart="3590.00" from="717084280" to="-717084282#2"/>
    <trip id="3591" depart="3591.00" from="231414755#8" to="544708859"/>
    <trip id="3592" depart="3592.00" from="-681862999#1" to="-544708859"/>
    <trip id="3593" depart="3593.00" from="231414758#4" to="231414755#6"/>
    <trip id="3594" depart="3594.00" from="1050145547" to="-231414755#1"/>
    <trip id="3595" depart="3595.00" from="231415002#1" to="231414755#3"/>
    <trip id="3596" depart="3596.00" from="-320343169#0" to="-716405864#1"/>
    <trip id="3597" depart="3597.00" from="-231414758#13" to="-231414758#5"/>
    <trip id="3598" depart="3598.00" from="231414755#0" to="-231415004"/>
    <trip id="3599" depart="3599.00" from="-717084279#0" to="231414758#12"/>
</routes>
