<?xml version="1.0" encoding="UTF-8"?>

<!-- generated on 2024-05-07 13:38:29 by Eclipse SUMO netedit Version 1.19.0
<configuration xmlns:xsi="http://www.w3.org/2001/XMLSchema-instance" xsi:noNamespaceSchemaLocation="http://sumo.dlr.de/xsd/neteditConfiguration.xsd">

    <input>
        <sumocfg-file value="/Users/gunasaimaheshatluri/Downloads/BTP_SUMO/city/new_config.sumocfg"/>
        <additional-files value="/Users/gunasaimaheshatluri/Downloads/BTP_SUMO/city/new_charging.add.xml"/>
        <route-files value="/Users/gunasaimaheshatluri/Downloads/BTP_SUMO/city/new_routes.rou.xml"/>
        <sumo-net-file value="/Users/gunasaimaheshatluri/MySUMOFile.net.xml"/>
    </input>

    <output>
        <output-file value="/Users/gunasaimaheshatluri/MySUMOFile.net.xml"/>
    </output>

    <processing>
        <geometry.min-radius.fix.railways value="false"/>
        <geometry.max-grade.fix value="false"/>
        <offset.disable-normalization value="true"/>
        <lefthand value="0"/>
    </processing>

    <junctions>
        <no-turnarounds value="true"/>
        <junctions.corner-detail value="5"/>
        <junctions.limit-turn-speed value="5.50"/>
        <rectangular-lane-cut value="0"/>
    </junctions>

    <pedestrian>
        <walkingareas value="0"/>
    </pedestrian>

</configuration>
-->

<net version="1.16" junctionCornerDetail="5" limitTurnSpeed="5.50" xmlns:xsi="http://www.w3.org/2001/XMLSchema-instance" xsi:noNamespaceSchemaLocation="http://sumo.dlr.de/xsd/net_file.xsd">

    <location netOffset="0.00,0.00" convBoundary="0.00,0.00,9000.00,9000.00" origBoundary="0.00,0.00,9000.00,9000.00" projParameter="!"/>

    <edge id=":A0_0" function="internal">
        <lane id=":A0_0_0" index="0" speed="8.96" length="18.06" shape="-4.80,6.40 -4.10,1.50 -2.00,-2.00 1.50,-4.10 6.40,-4.80"/>
        <lane id=":A0_0_1" index="1" speed="7.66" length="12.90" shape="-1.60,6.40 -1.10,2.90 0.40,0.40 2.90,-1.10 6.40,-1.60"/>
    </edge>
    <edge id=":A0_2" function="internal">
        <lane id=":A0_2_0" index="0" speed="3.90" length="2.58" shape="6.40,4.80 5.70,4.90 5.20,5.20 4.90,5.70 4.80,6.40"/>
        <lane id=":A0_2_1" index="1" speed="6.08" length="7.74" shape="6.40,1.60 4.30,1.90 2.80,2.80 1.90,4.30 1.60,6.40"/>
    </edge>
    <edge id=":A1_0" function="internal">
        <lane id=":A1_0_0" index="0" speed="13.89" length="20.80" shape="-4.80,1010.40 -4.80,989.60"/>
        <lane id=":A1_0_1" index="1" speed="13.89" length="20.80" shape="-1.60,1010.40 -1.60,989.60"/>
    </edge>
    <edge id=":A1_2" function="internal">
        <lane id=":A1_2_0" index="0" speed="9.26" length="5.01" shape="-1.60,1010.40 -0.89,1005.44"/>
    </edge>
    <edge id=":A1_3" function="internal">
        <lane id=":A1_3_0" index="0" speed="3.65" length="1.44" shape="-1.60,1010.40 -0.80,1009.20"/>
    </edge>
    <edge id=":A1_11" function="internal">
        <lane id=":A1_11_0" index="0" speed="9.26" length="14.34" shape="-0.89,1005.44 -0.85,1005.15 1.40,1001.40 5.15,999.15 10.40,998.40"/>
    </edge>
    <edge id=":A1_12" function="internal">
        <lane id=":A1_12_0" index="0" speed="3.65" length="3.23" shape="-0.80,1009.20 0.00,1008.80 0.80,1009.20 1.60,1010.40"/>
    </edge>
    <edge id=":A1_4" function="internal">
        <lane id=":A1_4_0" index="0" speed="6.51" length="9.03" shape="10.40,1004.80 7.95,1005.15 6.20,1006.20 5.15,1007.95 4.80,1010.40"/>
    </edge>
    <edge id=":A1_5" function="internal">
        <lane id=":A1_5_0" index="0" speed="9.26" length="19.35" shape="10.40,1001.60 5.15,1000.85 1.40,998.60 -0.85,994.85 -1.60,989.60"/>
    </edge>
    <edge id=":A1_6" function="internal">
        <lane id=":A1_6_0" index="0" speed="3.65" length="4.67" shape="10.40,1001.60 9.20,1000.80 8.80,1000.00 9.20,999.20 10.40,998.40"/>
    </edge>
    <edge id=":A1_7" function="internal">
        <lane id=":A1_7_0" index="0" speed="6.51" length="9.03" shape="4.80,989.60 5.15,992.05 6.20,993.80 7.95,994.85 10.40,995.20"/>
    </edge>
    <edge id=":A1_8" function="internal">
        <lane id=":A1_8_0" index="0" speed="13.89" length="20.80" shape="4.80,989.60 4.80,1010.40"/>
        <lane id=":A1_8_1" index="1" speed="13.89" length="20.80" shape="1.60,989.60 1.60,1010.40"/>
    </edge>
    <edge id=":A1_10" function="internal">
        <lane id=":A1_10_0" index="0" speed="3.65" length="1.44" shape="1.60,989.60 0.80,990.80"/>
    </edge>
    <edge id=":A1_13" function="internal">
        <lane id=":A1_13_0" index="0" speed="3.65" length="3.23" shape="0.80,990.80 0.00,991.20 -0.80,990.80 -1.60,989.60"/>
    </edge>
    <edge id=":A2_0" function="internal">
        <lane id=":A2_0_0" index="0" speed="13.89" length="20.80" shape="-4.80,2010.40 -4.80,1989.60"/>
        <lane id=":A2_0_1" index="1" speed="13.89" length="20.80" shape="-1.60,2010.40 -1.60,1989.60"/>
    </edge>
    <edge id=":A2_2" function="internal">
        <lane id=":A2_2_0" index="0" speed="9.26" length="5.01" shape="-1.60,2010.40 -0.89,2005.44"/>
    </edge>
    <edge id=":A2_3" function="internal">
        <lane id=":A2_3_0" index="0" speed="3.65" length="1.44" shape="-1.60,2010.40 -0.80,2009.20"/>
    </edge>
    <edge id=":A2_11" function="internal">
        <lane id=":A2_11_0" index="0" speed="9.26" length="14.34" shape="-0.89,2005.44 -0.85,2005.15 1.40,2001.40 5.15,1999.15 10.40,1998.40"/>
    </edge>
    <edge id=":A2_12" function="internal">
        <lane id=":A2_12_0" index="0" speed="3.65" length="3.23" shape="-0.80,2009.20 0.00,2008.80 0.80,2009.20 1.60,2010.40"/>
    </edge>
    <edge id=":A2_4" function="internal">
        <lane id=":A2_4_0" index="0" speed="6.51" length="9.03" shape="10.40,2004.80 7.95,2005.15 6.20,2006.20 5.15,2007.95 4.80,2010.40"/>
    </edge>
    <edge id=":A2_5" function="internal">
        <lane id=":A2_5_0" index="0" speed="9.26" length="19.35" shape="10.40,2001.60 5.15,2000.85 1.40,1998.60 -0.85,1994.85 -1.60,1989.60"/>
    </edge>
    <edge id=":A2_6" function="internal">
        <lane id=":A2_6_0" index="0" speed="3.65" length="4.67" shape="10.40,2001.60 9.20,2000.80 8.80,2000.00 9.20,1999.20 10.40,1998.40"/>
    </edge>
    <edge id=":A2_7" function="internal">
        <lane id=":A2_7_0" index="0" speed="6.51" length="9.03" shape="4.80,1989.60 5.15,1992.05 6.20,1993.80 7.95,1994.85 10.40,1995.20"/>
    </edge>
    <edge id=":A2_8" function="internal">
        <lane id=":A2_8_0" index="0" speed="13.89" length="20.80" shape="4.80,1989.60 4.80,2010.40"/>
        <lane id=":A2_8_1" index="1" speed="13.89" length="20.80" shape="1.60,1989.60 1.60,2010.40"/>
    </edge>
    <edge id=":A2_10" function="internal">
        <lane id=":A2_10_0" index="0" speed="3.65" length="1.44" shape="1.60,1989.60 0.80,1990.80"/>
    </edge>
    <edge id=":A2_13" function="internal">
        <lane id=":A2_13_0" index="0" speed="3.65" length="3.23" shape="0.80,1990.80 0.00,1991.20 -0.80,1990.80 -1.60,1989.60"/>
    </edge>
    <edge id=":A3_0" function="internal">
        <lane id=":A3_0_0" index="0" speed="13.89" length="20.80" shape="-4.80,3010.40 -4.80,2989.60"/>
        <lane id=":A3_0_1" index="1" speed="13.89" length="20.80" shape="-1.60,3010.40 -1.60,2989.60"/>
    </edge>
    <edge id=":A3_2" function="internal">
        <lane id=":A3_2_0" index="0" speed="9.26" length="5.01" shape="-1.60,3010.40 -0.89,3005.44"/>
    </edge>
    <edge id=":A3_3" function="internal">
        <lane id=":A3_3_0" index="0" speed="3.65" length="1.44" shape="-1.60,3010.40 -0.80,3009.20"/>
    </edge>
    <edge id=":A3_11" function="internal">
        <lane id=":A3_11_0" index="0" speed="9.26" length="14.34" shape="-0.89,3005.44 -0.85,3005.15 1.40,3001.40 5.15,2999.15 10.40,2998.40"/>
    </edge>
    <edge id=":A3_12" function="internal">
        <lane id=":A3_12_0" index="0" speed="3.65" length="3.23" shape="-0.80,3009.20 0.00,3008.80 0.80,3009.20 1.60,3010.40"/>
    </edge>
    <edge id=":A3_4" function="internal">
        <lane id=":A3_4_0" index="0" speed="6.51" length="9.03" shape="10.40,3004.80 7.95,3005.15 6.20,3006.20 5.15,3007.95 4.80,3010.40"/>
    </edge>
    <edge id=":A3_5" function="internal">
        <lane id=":A3_5_0" index="0" speed="9.26" length="19.35" shape="10.40,3001.60 5.15,3000.85 1.40,2998.60 -0.85,2994.85 -1.60,2989.60"/>
    </edge>
    <edge id=":A3_6" function="internal">
        <lane id=":A3_6_0" index="0" speed="3.65" length="4.67" shape="10.40,3001.60 9.20,3000.80 8.80,3000.00 9.20,2999.20 10.40,2998.40"/>
    </edge>
    <edge id=":A3_7" function="internal">
        <lane id=":A3_7_0" index="0" speed="6.51" length="9.03" shape="4.80,2989.60 5.15,2992.05 6.20,2993.80 7.95,2994.85 10.40,2995.20"/>
    </edge>
    <edge id=":A3_8" function="internal">
        <lane id=":A3_8_0" index="0" speed="13.89" length="20.80" shape="4.80,2989.60 4.80,3010.40"/>
        <lane id=":A3_8_1" index="1" speed="13.89" length="20.80" shape="1.60,2989.60 1.60,3010.40"/>
    </edge>
    <edge id=":A3_10" function="internal">
        <lane id=":A3_10_0" index="0" speed="3.65" length="1.44" shape="1.60,2989.60 0.80,2990.80"/>
    </edge>
    <edge id=":A3_13" function="internal">
        <lane id=":A3_13_0" index="0" speed="3.65" length="3.23" shape="0.80,2990.80 0.00,2991.20 -0.80,2990.80 -1.60,2989.60"/>
    </edge>
    <edge id=":A4_0" function="internal">
        <lane id=":A4_0_0" index="0" speed="13.89" length="20.80" shape="-4.80,4010.40 -4.80,3989.60"/>
        <lane id=":A4_0_1" index="1" speed="13.89" length="20.80" shape="-1.60,4010.40 -1.60,3989.60"/>
    </edge>
    <edge id=":A4_2" function="internal">
        <lane id=":A4_2_0" index="0" speed="9.26" length="5.01" shape="-1.60,4010.40 -0.89,4005.44"/>
    </edge>
    <edge id=":A4_3" function="internal">
        <lane id=":A4_3_0" index="0" speed="3.65" length="1.44" shape="-1.60,4010.40 -0.80,4009.20"/>
    </edge>
    <edge id=":A4_11" function="internal">
        <lane id=":A4_11_0" index="0" speed="9.26" length="14.34" shape="-0.89,4005.44 -0.85,4005.15 1.40,4001.40 5.15,3999.15 10.40,3998.40"/>
    </edge>
    <edge id=":A4_12" function="internal">
        <lane id=":A4_12_0" index="0" speed="3.65" length="3.23" shape="-0.80,4009.20 0.00,4008.80 0.80,4009.20 1.60,4010.40"/>
    </edge>
    <edge id=":A4_4" function="internal">
        <lane id=":A4_4_0" index="0" speed="6.51" length="9.03" shape="10.40,4004.80 7.95,4005.15 6.20,4006.20 5.15,4007.95 4.80,4010.40"/>
    </edge>
    <edge id=":A4_5" function="internal">
        <lane id=":A4_5_0" index="0" speed="9.26" length="19.35" shape="10.40,4001.60 5.15,4000.85 1.40,3998.60 -0.85,3994.85 -1.60,3989.60"/>
    </edge>
    <edge id=":A4_6" function="internal">
        <lane id=":A4_6_0" index="0" speed="3.65" length="4.67" shape="10.40,4001.60 9.20,4000.80 8.80,4000.00 9.20,3999.20 10.40,3998.40"/>
    </edge>
    <edge id=":A4_7" function="internal">
        <lane id=":A4_7_0" index="0" speed="6.51" length="9.03" shape="4.80,3989.60 5.15,3992.05 6.20,3993.80 7.95,3994.85 10.40,3995.20"/>
    </edge>
    <edge id=":A4_8" function="internal">
        <lane id=":A4_8_0" index="0" speed="13.89" length="20.80" shape="4.80,3989.60 4.80,4010.40"/>
        <lane id=":A4_8_1" index="1" speed="13.89" length="20.80" shape="1.60,3989.60 1.60,4010.40"/>
    </edge>
    <edge id=":A4_10" function="internal">
        <lane id=":A4_10_0" index="0" speed="3.65" length="1.44" shape="1.60,3989.60 0.80,3990.80"/>
    </edge>
    <edge id=":A4_13" function="internal">
        <lane id=":A4_13_0" index="0" speed="3.65" length="3.23" shape="0.80,3990.80 0.00,3991.20 -0.80,3990.80 -1.60,3989.60"/>
    </edge>
    <edge id=":A5_0" function="internal">
        <lane id=":A5_0_0" index="0" speed="13.89" length="20.80" shape="-4.80,5010.40 -4.80,4989.60"/>
        <lane id=":A5_0_1" index="1" speed="13.89" length="20.80" shape="-1.60,5010.40 -1.60,4989.60"/>
    </edge>
    <edge id=":A5_2" function="internal">
        <lane id=":A5_2_0" index="0" speed="9.26" length="5.01" shape="-1.60,5010.40 -0.89,5005.44"/>
    </edge>
    <edge id=":A5_3" function="internal">
        <lane id=":A5_3_0" index="0" speed="3.65" length="1.44" shape="-1.60,5010.40 -0.80,5009.20"/>
    </edge>
    <edge id=":A5_11" function="internal">
        <lane id=":A5_11_0" index="0" speed="9.26" length="14.34" shape="-0.89,5005.44 -0.85,5005.15 1.40,5001.40 5.15,4999.15 10.40,4998.40"/>
    </edge>
    <edge id=":A5_12" function="internal">
        <lane id=":A5_12_0" index="0" speed="3.65" length="3.23" shape="-0.80,5009.20 0.00,5008.80 0.80,5009.20 1.60,5010.40"/>
    </edge>
    <edge id=":A5_4" function="internal">
        <lane id=":A5_4_0" index="0" speed="6.51" length="9.03" shape="10.40,5004.80 7.95,5005.15 6.20,5006.20 5.15,5007.95 4.80,5010.40"/>
    </edge>
    <edge id=":A5_5" function="internal">
        <lane id=":A5_5_0" index="0" speed="9.26" length="19.35" shape="10.40,5001.60 5.15,5000.85 1.40,4998.60 -0.85,4994.85 -1.60,4989.60"/>
    </edge>
    <edge id=":A5_6" function="internal">
        <lane id=":A5_6_0" index="0" speed="3.65" length="4.67" shape="10.40,5001.60 9.20,5000.80 8.80,5000.00 9.20,4999.20 10.40,4998.40"/>
    </edge>
    <edge id=":A5_7" function="internal">
        <lane id=":A5_7_0" index="0" speed="6.51" length="9.03" shape="4.80,4989.60 5.15,4992.05 6.20,4993.80 7.95,4994.85 10.40,4995.20"/>
    </edge>
    <edge id=":A5_8" function="internal">
        <lane id=":A5_8_0" index="0" speed="13.89" length="20.80" shape="4.80,4989.60 4.80,5010.40"/>
        <lane id=":A5_8_1" index="1" speed="13.89" length="20.80" shape="1.60,4989.60 1.60,5010.40"/>
    </edge>
    <edge id=":A5_10" function="internal">
        <lane id=":A5_10_0" index="0" speed="3.65" length="1.44" shape="1.60,4989.60 0.80,4990.80"/>
    </edge>
    <edge id=":A5_13" function="internal">
        <lane id=":A5_13_0" index="0" speed="3.65" length="3.23" shape="0.80,4990.80 0.00,4991.20 -0.80,4990.80 -1.60,4989.60"/>
    </edge>
    <edge id=":A6_0" function="internal">
        <lane id=":A6_0_0" index="0" speed="13.89" length="20.80" shape="-4.80,6010.40 -4.80,5989.60"/>
        <lane id=":A6_0_1" index="1" speed="13.89" length="20.80" shape="-1.60,6010.40 -1.60,5989.60"/>
    </edge>
    <edge id=":A6_2" function="internal">
        <lane id=":A6_2_0" index="0" speed="9.26" length="5.01" shape="-1.60,6010.40 -0.89,6005.44"/>
    </edge>
    <edge id=":A6_3" function="internal">
        <lane id=":A6_3_0" index="0" speed="3.65" length="1.44" shape="-1.60,6010.40 -0.80,6009.20"/>
    </edge>
    <edge id=":A6_11" function="internal">
        <lane id=":A6_11_0" index="0" speed="9.26" length="14.34" shape="-0.89,6005.44 -0.85,6005.15 1.40,6001.40 5.15,5999.15 10.40,5998.40"/>
    </edge>
    <edge id=":A6_12" function="internal">
        <lane id=":A6_12_0" index="0" speed="3.65" length="3.23" shape="-0.80,6009.20 0.00,6008.80 0.80,6009.20 1.60,6010.40"/>
    </edge>
    <edge id=":A6_4" function="internal">
        <lane id=":A6_4_0" index="0" speed="6.51" length="9.03" shape="10.40,6004.80 7.95,6005.15 6.20,6006.20 5.15,6007.95 4.80,6010.40"/>
    </edge>
    <edge id=":A6_5" function="internal">
        <lane id=":A6_5_0" index="0" speed="9.26" length="19.35" shape="10.40,6001.60 5.15,6000.85 1.40,5998.60 -0.85,5994.85 -1.60,5989.60"/>
    </edge>
    <edge id=":A6_6" function="internal">
        <lane id=":A6_6_0" index="0" speed="3.65" length="4.67" shape="10.40,6001.60 9.20,6000.80 8.80,6000.00 9.20,5999.20 10.40,5998.40"/>
    </edge>
    <edge id=":A6_7" function="internal">
        <lane id=":A6_7_0" index="0" speed="6.51" length="9.03" shape="4.80,5989.60 5.15,5992.05 6.20,5993.80 7.95,5994.85 10.40,5995.20"/>
    </edge>
    <edge id=":A6_8" function="internal">
        <lane id=":A6_8_0" index="0" speed="13.89" length="20.80" shape="4.80,5989.60 4.80,6010.40"/>
        <lane id=":A6_8_1" index="1" speed="13.89" length="20.80" shape="1.60,5989.60 1.60,6010.40"/>
    </edge>
    <edge id=":A6_10" function="internal">
        <lane id=":A6_10_0" index="0" speed="3.65" length="1.44" shape="1.60,5989.60 0.80,5990.80"/>
    </edge>
    <edge id=":A6_13" function="internal">
        <lane id=":A6_13_0" index="0" speed="3.65" length="3.23" shape="0.80,5990.80 0.00,5991.20 -0.80,5990.80 -1.60,5989.60"/>
    </edge>
    <edge id=":A7_0" function="internal">
        <lane id=":A7_0_0" index="0" speed="13.89" length="20.80" shape="-4.80,7010.40 -4.80,6989.60"/>
        <lane id=":A7_0_1" index="1" speed="13.89" length="20.80" shape="-1.60,7010.40 -1.60,6989.60"/>
    </edge>
    <edge id=":A7_2" function="internal">
        <lane id=":A7_2_0" index="0" speed="9.26" length="5.01" shape="-1.60,7010.40 -0.89,7005.44"/>
    </edge>
    <edge id=":A7_3" function="internal">
        <lane id=":A7_3_0" index="0" speed="3.65" length="1.44" shape="-1.60,7010.40 -0.80,7009.20"/>
    </edge>
    <edge id=":A7_11" function="internal">
        <lane id=":A7_11_0" index="0" speed="9.26" length="14.34" shape="-0.89,7005.44 -0.85,7005.15 1.40,7001.40 5.15,6999.15 10.40,6998.40"/>
    </edge>
    <edge id=":A7_12" function="internal">
        <lane id=":A7_12_0" index="0" speed="3.65" length="3.23" shape="-0.80,7009.20 0.00,7008.80 0.80,7009.20 1.60,7010.40"/>
    </edge>
    <edge id=":A7_4" function="internal">
        <lane id=":A7_4_0" index="0" speed="6.51" length="9.03" shape="10.40,7004.80 7.95,7005.15 6.20,7006.20 5.15,7007.95 4.80,7010.40"/>
    </edge>
    <edge id=":A7_5" function="internal">
        <lane id=":A7_5_0" index="0" speed="9.26" length="19.35" shape="10.40,7001.60 5.15,7000.85 1.40,6998.60 -0.85,6994.85 -1.60,6989.60"/>
    </edge>
    <edge id=":A7_6" function="internal">
        <lane id=":A7_6_0" index="0" speed="3.65" length="4.67" shape="10.40,7001.60 9.20,7000.80 8.80,7000.00 9.20,6999.20 10.40,6998.40"/>
    </edge>
    <edge id=":A7_7" function="internal">
        <lane id=":A7_7_0" index="0" speed="6.51" length="9.03" shape="4.80,6989.60 5.15,6992.05 6.20,6993.80 7.95,6994.85 10.40,6995.20"/>
    </edge>
    <edge id=":A7_8" function="internal">
        <lane id=":A7_8_0" index="0" speed="13.89" length="20.80" shape="4.80,6989.60 4.80,7010.40"/>
        <lane id=":A7_8_1" index="1" speed="13.89" length="20.80" shape="1.60,6989.60 1.60,7010.40"/>
    </edge>
    <edge id=":A7_10" function="internal">
        <lane id=":A7_10_0" index="0" speed="3.65" length="1.44" shape="1.60,6989.60 0.80,6990.80"/>
    </edge>
    <edge id=":A7_13" function="internal">
        <lane id=":A7_13_0" index="0" speed="3.65" length="3.23" shape="0.80,6990.80 0.00,6991.20 -0.80,6990.80 -1.60,6989.60"/>
    </edge>
    <edge id=":A8_0" function="internal">
        <lane id=":A8_0_0" index="0" speed="13.89" length="20.80" shape="-4.80,8010.40 -4.80,7989.60"/>
        <lane id=":A8_0_1" index="1" speed="13.89" length="20.80" shape="-1.60,8010.40 -1.60,7989.60"/>
    </edge>
    <edge id=":A8_2" function="internal">
        <lane id=":A8_2_0" index="0" speed="9.26" length="5.01" shape="-1.60,8010.40 -0.89,8005.44"/>
    </edge>
    <edge id=":A8_3" function="internal">
        <lane id=":A8_3_0" index="0" speed="3.65" length="1.44" shape="-1.60,8010.40 -0.80,8009.20"/>
    </edge>
    <edge id=":A8_11" function="internal">
        <lane id=":A8_11_0" index="0" speed="9.26" length="14.34" shape="-0.89,8005.44 -0.85,8005.15 1.40,8001.40 5.15,7999.15 10.40,7998.40"/>
    </edge>
    <edge id=":A8_12" function="internal">
        <lane id=":A8_12_0" index="0" speed="3.65" length="3.23" shape="-0.80,8009.20 0.00,8008.80 0.80,8009.20 1.60,8010.40"/>
    </edge>
    <edge id=":A8_4" function="internal">
        <lane id=":A8_4_0" index="0" speed="6.51" length="9.03" shape="10.40,8004.80 7.95,8005.15 6.20,8006.20 5.15,8007.95 4.80,8010.40"/>
    </edge>
    <edge id=":A8_5" function="internal">
        <lane id=":A8_5_0" index="0" speed="9.26" length="19.35" shape="10.40,8001.60 5.15,8000.85 1.40,7998.60 -0.85,7994.85 -1.60,7989.60"/>
    </edge>
    <edge id=":A8_6" function="internal">
        <lane id=":A8_6_0" index="0" speed="3.65" length="4.67" shape="10.40,8001.60 9.20,8000.80 8.80,8000.00 9.20,7999.20 10.40,7998.40"/>
    </edge>
    <edge id=":A8_7" function="internal">
        <lane id=":A8_7_0" index="0" speed="6.51" length="9.03" shape="4.80,7989.60 5.15,7992.05 6.20,7993.80 7.95,7994.85 10.40,7995.20"/>
    </edge>
    <edge id=":A8_8" function="internal">
        <lane id=":A8_8_0" index="0" speed="13.89" length="20.80" shape="4.80,7989.60 4.80,8010.40"/>
        <lane id=":A8_8_1" index="1" speed="13.89" length="20.80" shape="1.60,7989.60 1.60,8010.40"/>
    </edge>
    <edge id=":A8_10" function="internal">
        <lane id=":A8_10_0" index="0" speed="3.65" length="1.44" shape="1.60,7989.60 0.80,7990.80"/>
    </edge>
    <edge id=":A8_13" function="internal">
        <lane id=":A8_13_0" index="0" speed="3.65" length="3.23" shape="0.80,7990.80 0.00,7991.20 -0.80,7990.80 -1.60,7989.60"/>
    </edge>
    <edge id=":A9_0" function="internal">
        <lane id=":A9_0_0" index="0" speed="8.96" length="18.06" shape="6.40,9004.80 1.50,9004.10 -2.00,9002.00 -4.10,8998.50 -4.80,8993.60"/>
        <lane id=":A9_0_1" index="1" speed="7.66" length="12.90" shape="6.40,9001.60 2.90,9001.10 0.40,8999.60 -1.10,8997.10 -1.60,8993.60"/>
    </edge>
    <edge id=":A9_2" function="internal">
        <lane id=":A9_2_0" index="0" speed="3.90" length="2.58" shape="4.80,8993.60 4.90,8994.30 5.20,8994.80 5.70,8995.10 6.40,8995.20"/>
        <lane id=":A9_2_1" index="1" speed="6.08" length="7.74" shape="1.60,8993.60 1.90,8995.70 2.80,8997.20 4.30,8998.10 6.40,8998.40"/>
    </edge>
    <edge id=":B0_0" function="internal">
        <lane id=":B0_0_0" index="0" speed="6.51" length="9.03" shape="995.20,10.40 994.85,7.95 993.80,6.20 992.05,5.15 989.60,4.80"/>
    </edge>
    <edge id=":B0_1" function="internal">
        <lane id=":B0_1_0" index="0" speed="9.26" length="19.35" shape="998.40,10.40 999.15,5.15 1001.40,1.40 1005.15,-0.85 1010.40,-1.60"/>
    </edge>
    <edge id=":B0_2" function="internal">
        <lane id=":B0_2_0" index="0" speed="3.65" length="4.67" shape="998.40,10.40 999.20,9.20 1000.00,8.80 1000.80,9.20 1001.60,10.40"/>
    </edge>
    <edge id=":B0_3" function="internal">
        <lane id=":B0_3_0" index="0" speed="6.51" length="9.03" shape="1010.40,4.80 1007.95,5.15 1006.20,6.20 1005.15,7.95 1004.80,10.40"/>
    </edge>
    <edge id=":B0_4" function="internal">
        <lane id=":B0_4_0" index="0" speed="13.89" length="20.80" shape="1010.40,4.80 989.60,4.80"/>
        <lane id=":B0_4_1" index="1" speed="13.89" length="20.80" shape="1010.40,1.60 989.60,1.60"/>
    </edge>
    <edge id=":B0_6" function="internal">
        <lane id=":B0_6_0" index="0" speed="3.65" length="1.44" shape="1010.40,1.60 1009.20,0.80"/>
    </edge>
    <edge id=":B0_11" function="internal">
        <lane id=":B0_11_0" index="0" speed="3.65" length="3.23" shape="1009.20,0.80 1008.80,0.00 1009.20,-0.80 1010.40,-1.60"/>
    </edge>
    <edge id=":B0_7" function="internal">
        <lane id=":B0_7_0" index="0" speed="13.89" length="20.80" shape="989.60,-4.80 1010.40,-4.80"/>
        <lane id=":B0_7_1" index="1" speed="13.89" length="20.80" shape="989.60,-1.60 1010.40,-1.60"/>
    </edge>
    <edge id=":B0_9" function="internal">
        <lane id=":B0_9_0" index="0" speed="9.26" length="5.01" shape="989.60,-1.60 994.56,-0.89"/>
    </edge>
    <edge id=":B0_10" function="internal">
        <lane id=":B0_10_0" index="0" speed="3.65" length="1.44" shape="989.60,-1.60 990.80,-0.80"/>
    </edge>
    <edge id=":B0_12" function="internal">
        <lane id=":B0_12_0" index="0" speed="9.26" length="14.34" shape="994.56,-0.89 994.85,-0.85 998.60,1.40 1000.85,5.15 1001.60,10.40"/>
    </edge>
    <edge id=":B0_13" function="internal">
        <lane id=":B0_13_0" index="0" speed="3.65" length="3.23" shape="990.80,-0.80 991.20,0.00 990.80,0.80 989.60,1.60"/>
    </edge>
    <edge id=":B1_0" function="internal">
        <lane id=":B1_0_0" index="0" speed="6.51" length="9.03" shape="995.20,1010.40 994.85,1007.95 993.80,1006.20 992.05,1005.15 989.60,1004.80"/>
    </edge>
    <edge id=":B1_1" function="internal">
        <lane id=":B1_1_0" index="0" speed="13.89" length="20.80" shape="995.20,1010.40 995.20,989.60"/>
        <lane id=":B1_1_1" index="1" speed="13.89" length="20.80" shape="998.40,1010.40 998.40,989.60"/>
    </edge>
    <edge id=":B1_3" function="internal">
        <lane id=":B1_3_0" index="0" speed="9.26" length="5.01" shape="998.40,1010.40 999.11,1005.44"/>
    </edge>
    <edge id=":B1_4" function="internal">
        <lane id=":B1_4_0" index="0" speed="3.65" length="1.44" shape="998.40,1010.40 999.20,1009.20"/>
    </edge>
    <edge id=":B1_20" function="internal">
        <lane id=":B1_20_0" index="0" speed="9.26" length="14.34" shape="999.11,1005.44 999.15,1005.15 1001.40,1001.40 1005.15,999.15 1010.40,998.40"/>
    </edge>
    <edge id=":B1_21" function="internal">
        <lane id=":B1_21_0" index="0" speed="3.65" length="3.23" shape="999.20,1009.20 1000.00,1008.80 1000.80,1009.20 1001.60,1010.40"/>
    </edge>
    <edge id=":B1_5" function="internal">
        <lane id=":B1_5_0" index="0" speed="6.51" length="9.03" shape="1010.40,1004.80 1007.95,1005.15 1006.20,1006.20 1005.15,1007.95 1004.80,1010.40"/>
    </edge>
    <edge id=":B1_6" function="internal">
        <lane id=":B1_6_0" index="0" speed="13.89" length="20.80" shape="1010.40,1004.80 989.60,1004.80"/>
        <lane id=":B1_6_1" index="1" speed="13.89" length="20.80" shape="1010.40,1001.60 989.60,1001.60"/>
    </edge>
    <edge id=":B1_8" function="internal">
        <lane id=":B1_8_0" index="0" speed="9.26" length="19.35" shape="1010.40,1001.60 1005.15,1000.85 1001.40,998.60 999.15,994.85 998.40,989.60"/>
    </edge>
    <edge id=":B1_9" function="internal">
        <lane id=":B1_9_0" index="0" speed="3.65" length="4.67" shape="1010.40,1001.60 1009.20,1000.80 1008.80,1000.00 1009.20,999.20 1010.40,998.40"/>
    </edge>
    <edge id=":B1_10" function="internal">
        <lane id=":B1_10_0" index="0" speed="6.51" length="9.03" shape="1004.80,989.60 1005.15,992.05 1006.20,993.80 1007.95,994.85 1010.40,995.20"/>
    </edge>
    <edge id=":B1_11" function="internal">
        <lane id=":B1_11_0" index="0" speed="13.89" length="20.80" shape="1004.80,989.60 1004.80,1010.40"/>
        <lane id=":B1_11_1" index="1" speed="13.89" length="20.80" shape="1001.60,989.60 1001.60,1010.40"/>
    </edge>
    <edge id=":B1_13" function="internal">
        <lane id=":B1_13_0" index="0" speed="9.26" length="5.01" shape="1001.60,989.60 1000.89,994.56"/>
    </edge>
    <edge id=":B1_14" function="internal">
        <lane id=":B1_14_0" index="0" speed="3.65" length="1.44" shape="1001.60,989.60 1000.80,990.80"/>
    </edge>
    <edge id=":B1_22" function="internal">
        <lane id=":B1_22_0" index="0" speed="9.26" length="14.34" shape="1000.89,994.56 1000.85,994.85 998.60,998.60 994.85,1000.85 989.60,1001.60"/>
    </edge>
    <edge id=":B1_23" function="internal">
        <lane id=":B1_23_0" index="0" speed="3.65" length="3.23" shape="1000.80,990.80 1000.00,991.20 999.20,990.80 998.40,989.60"/>
    </edge>
    <edge id=":B1_15" function="internal">
        <lane id=":B1_15_0" index="0" speed="6.51" length="9.03" shape="989.60,995.20 992.05,994.85 993.80,993.80 994.85,992.05 995.20,989.60"/>
    </edge>
    <edge id=":B1_16" function="internal">
        <lane id=":B1_16_0" index="0" speed="13.89" length="20.80" shape="989.60,995.20 1010.40,995.20"/>
        <lane id=":B1_16_1" index="1" speed="13.89" length="20.80" shape="989.60,998.40 1010.40,998.40"/>
    </edge>
    <edge id=":B1_18" function="internal">
        <lane id=":B1_18_0" index="0" speed="9.26" length="19.35" shape="989.60,998.40 994.85,999.15 998.60,1001.40 1000.85,1005.15 1001.60,1010.40"/>
    </edge>
    <edge id=":B1_19" function="internal">
        <lane id=":B1_19_0" index="0" speed="3.65" length="4.67" shape="989.60,998.40 990.80,999.20 991.20,1000.00 990.80,1000.80 989.60,1001.60"/>
    </edge>
    <edge id=":B2_0" function="internal">
        <lane id=":B2_0_0" index="0" speed="6.51" length="9.03" shape="995.20,2010.40 994.85,2007.95 993.80,2006.20 992.05,2005.15 989.60,2004.80"/>
    </edge>
    <edge id=":B2_1" function="internal">
        <lane id=":B2_1_0" index="0" speed="13.89" length="20.80" shape="995.20,2010.40 995.20,1989.60"/>
        <lane id=":B2_1_1" index="1" speed="13.89" length="20.80" shape="998.40,2010.40 998.40,1989.60"/>
    </edge>
    <edge id=":B2_3" function="internal">
        <lane id=":B2_3_0" index="0" speed="9.26" length="5.01" shape="998.40,2010.40 999.11,2005.44"/>
    </edge>
    <edge id=":B2_4" function="internal">
        <lane id=":B2_4_0" index="0" speed="3.65" length="1.44" shape="998.40,2010.40 999.20,2009.20"/>
    </edge>
    <edge id=":B2_20" function="internal">
        <lane id=":B2_20_0" index="0" speed="9.26" length="14.34" shape="999.11,2005.44 999.15,2005.15 1001.40,2001.40 1005.15,1999.15 1010.40,1998.40"/>
    </edge>
    <edge id=":B2_21" function="internal">
        <lane id=":B2_21_0" index="0" speed="3.65" length="3.23" shape="999.20,2009.20 1000.00,2008.80 1000.80,2009.20 1001.60,2010.40"/>
    </edge>
    <edge id=":B2_5" function="internal">
        <lane id=":B2_5_0" index="0" speed="6.51" length="9.03" shape="1010.40,2004.80 1007.95,2005.15 1006.20,2006.20 1005.15,2007.95 1004.80,2010.40"/>
    </edge>
    <edge id=":B2_6" function="internal">
        <lane id=":B2_6_0" index="0" speed="13.89" length="20.80" shape="1010.40,2004.80 989.60,2004.80"/>
        <lane id=":B2_6_1" index="1" speed="13.89" length="20.80" shape="1010.40,2001.60 989.60,2001.60"/>
    </edge>
    <edge id=":B2_8" function="internal">
        <lane id=":B2_8_0" index="0" speed="9.26" length="19.35" shape="1010.40,2001.60 1005.15,2000.85 1001.40,1998.60 999.15,1994.85 998.40,1989.60"/>
    </edge>
    <edge id=":B2_9" function="internal">