<?xml version="1.0" encoding="UTF-8"?>

<additional>
   <chargingStation id="cs_0" lane="B9A9_0" startPos="300.00" endPos="400.00" power="46777.0" chargeDelay="8.0">
        <param key="cost" value="7.0"/>
        <param key="power" value="46777.0"/>
        <param key="chargeDelay" value="8.0"/>
    </chargingStation>
   <chargingStation id="cs_1" lane="A9B9_0" startPos="300.00" endPos="400.00" power="47939.0" chargeDelay="6.0">
        <param key="cost" value="5.0"/>
        <param key="power" value="47939.0"/>
        <param key="chargeDelay" value="6.0"/>
    </chargingStation>
   <chargingStation id="cs_2" lane="A7A6_0" startPos="300.00" endPos="400.00" power="38494.0" chargeDelay="4.0">
        <param key="cost" value="12.0"/>
        <param key="power" value="38494.0"/>
        <param key="chargeDelay" value="4.0"/>
    </chargingStation>
   <chargingStation id="cs_3" lane="D3C3_0" startPos="300.00" endPos="400.00" power="6216.0" chargeDelay="10.0">
        <param key="cost" value="10.0"/>
        <param key="power" value="6216.0"/>
        <param key="chargeDelay" value="10.0"/>
    </chargingStation>
   <chargingStation id="cs_4" lane="C3D3_0" startPos="300.00" endPos="400.00" power="43814.0" chargeDelay="2.0">
        <param key="cost" value="9.0"/>
        <param key="power" value="43814.0"/>
        <param key="chargeDelay" value="2.0"/>
    </chargingStation>
   <chargingStation id="cs_5" lane="C3C2_0" startPos="300.00" endPos="400.00" power="15854.0" chargeDelay="9.0">
        <param key="cost" value="7.0"/>
        <param key="power" value="15854.0"/>
        <param key="chargeDelay" value="9.0"/>
    </chargingStation>
   <chargingStation id="cs_6" lane="C2C3_0" startPos="300.00" endPos="400.00" power="26239.0" chargeDelay="8.0">
        <param key="cost" value="14.0"/>
        <param key="power" value="26239.0"/>
        <param key="chargeDelay" value="8.0"/>
    </chargingStation>
   <chargingStation id="cs_7" lane="D2C2_0" startPos="300.00" endPos="400.00" power="32221.0" chargeDelay="3.0">
        <param key="cost" value="13.0"/>
        <param key="power" value="32221.0"/>
        <param key="chargeDelay" value="3.0"/>
    </chargingStation>
   <chargingStation id="cs_8" lane="C2D2_0" startPos="300.00" endPos="400.00" power="38827.0" chargeDelay="10.0">
        <param key="cost" value="15.0"/>
        <param key="power" value="38827.0"/>
        <param key="chargeDelay" value="10.0"/>
    </chargingStation>
   <chargingStation id="cs_9" lane="C2C1_0" startPos="300.00" endPos="400.00" power="5524.0" chargeDelay="6.0">
        <param key="cost" value="5.0"/>
        <param key="power" value="5524.0"/>
        <param key="chargeDelay" value="6.0"/>
    </chargingStation>
   <chargingStation id="cs_10" lane="C1C2_0" startPos="300.00" endPos="400.00" power="16579.0" chargeDelay="8.0">
        <param key="cost" value="8.0"/>
        <param key="power" value="16579.0"/>
        <param key="chargeDelay" value="8.0"/>
    </chargingStation>
   <chargingStation id="cs_11" lane="D1C1_0" startPos="300.00" endPos="400.00" power="33338.0" chargeDelay="6.0">
        <param key="cost" value="14.0"/>
        <param key="power" value="33338.0"/>
        <param key="chargeDelay" value="6.0"/>
    </chargingStation>
   <chargingStation id="cs_12" lane="C1D1_0" startPos="300.00" endPos="400.00" power="46477.0" chargeDelay="6.0">
        <param key="cost" value="9.0"/>
        <param key="power" value="46477.0"/>
        <param key="chargeDelay" value="6.0"/>
    </chargingStation>
   <chargingStation id="cs_13" lane="A6A7_0" startPos="300.00" endPos="400.00" power="36672.0" chargeDelay="4.0">
        <param key="cost" value="14.0"/>
        <param key="power" value="36672.0"/>
        <param key="chargeDelay" value="4.0"/>
    </chargingStation>
   <chargingStation id="cs_14" lane="C1C0_0" startPos="300.00" endPos="400.00" power="45402.0" chargeDelay="5.0">
        <param key="cost" value="9.0"/>
        <param key="power" value="45402.0"/>
        <param key="chargeDelay" value="5.0"/>
    </chargingStation>
   <chargingStation id="cs_15" lane="C0C1_0" startPos="300.00" endPos="400.00" power="43818.0" chargeDelay="7.0">
        <param key="cost" value="13.0"/>
        <param key="power" value="43818.0"/>
        <param key="chargeDelay" value="7.0"/>
    </chargingStation>
   <chargingStation id="cs_16" lane="D0C0_0" startPos="300.00" endPos="400.00" power="12456.0" chargeDelay="6.0">
        <param key="cost" value="12.0"/>
        <param key="power" value="12456.0"/>
        <param key="chargeDelay" value="6.0"/>
    </chargingStation>
   <chargingStation id="cs_17" lane="C0D0_0" startPos="300.00" endPos="400.00" power="20745.0" chargeDelay="2.0">
        <param key="cost" value="14.0"/>
        <param key="power" value="20745.0"/>
        <param key="chargeDelay" value="2.0"/>
    </chargingStation>
   <chargingStation id="cs_18" lane="E0D0_0" startPos="300.00" endPos="400.00" power="29436.0" chargeDelay="3.0">
        <param key="cost" value="9.0"/>
        <param key="power" value="29436.0"/>
        <param key="chargeDelay" value="3.0"/>
    </chargingStation>
   <chargingStation id="cs_19" lane="D0E0_0" startPos="300.00" endPos="400.00" power="8648.0" chargeDelay="3.0">
        <param key="cost" value="7.0"/>
        <param key="power" value="8648.0"/>
        <param key="chargeDelay" value="3.0"/>
    </chargingStation>
   <chargingStation id="cs_20" lane="D1D0_0" startPos="300.00" endPos="400.00" power="20116.0" chargeDelay="2.0">
        <param key="cost" value="6.0"/>
        <param key="power" value="20116.0"/>
        <param key="chargeDelay" value="2.0"/>
    </chargingStation>
   <chargingStation id="cs_21" lane="D0D1_0" startPos="300.00" endPos="400.00" power="41892.0" chargeDelay="5.0">
        <param key="cost" value="7.0"/>
        <param key="power" value="41892.0"/>
        <param key="chargeDelay" value="5.0"/>
    </chargingStation>
   <chargingStation id="cs_22" lane="E1D1_0" startPos="300.00" endPos="400.00" power="6023.0" chargeDelay="5.0">
        <param key="cost" value="11.0"/>
        <param key="power" value="6023.0"/>
        <param key="chargeDelay" value="5.0"/>
    </chargingStation>
   <chargingStation id="cs_23" lane="D1E1_0" startPos="300.00" endPos="400.00" power="10863.0" chargeDelay="3.0">
        <param key="cost" value="7.0"/>
        <param key="power" value="10863.0"/>
        <param key="chargeDelay" value="3.0"/>
    </chargingStation>
   <chargingStation id="cs_24" lane="B6A6_0" startPos="300.00" endPos="400.00" power="17215.0" chargeDelay="3.0">
        <param key="cost" value="14.0"/>
        <param key="power" value="17215.0"/>
        <param key="chargeDelay" value="3.0"/>
    </chargingStation>
   <chargingStation id="cs_25" lane="D2D1_0" startPos="300.00" endPos="400.00" power="17478.0" chargeDelay="3.0">
        <param key="cost" value="10.0"/>
        <param key="power" value="17478.0"/>
        <param key="chargeDelay" value="3.0"/>
    </chargingStation>
   <chargingStation id="cs_26" lane="D1D2_0" startPos="300.00" endPos="400.00" power="21558.0" chargeDelay="5.0">
        <param key="cost" value="11.0"/>
        <param key="power" value="21558.0"/>
        <param key="chargeDelay" value="5.0"/>
    </chargingStation>
   <chargingStation id="cs_27" lane="E2D2_0" startPos="300.00" endPos="400.00" power="20844.0" chargeDelay="6.0">
        <param key="cost" value="10.0"/>
        <param key="power" value="20844.0"/>
        <param key="chargeDelay" value="6.0"/>
    </chargingStation>
   <chargingStation id="cs_28" lane="D2E2_0" startPos="300.00" endPos="400.00" power="7548.0" chargeDelay="3.0">
        <param key="cost" value="10.0"/>
        <param key="power" value="7548.0"/>
        <param key="chargeDelay" value="3.0"/>
    </chargingStation>
   <chargingStation id="cs_29" lane="D3D2_0" startPos="300.00" endPos="400.00" power="23849.0" chargeDelay="6.0">
        <param key="cost" value="7.0"/>
        <param key="power" value="23849.0"/>
        <param key="chargeDelay" value="6.0"/>
    </chargingStation>
   <chargingStation id="cs_30" lane="D2D3_0" startPos="300.00" endPos="400.00" power="1525.0" chargeDelay="2.0">
        <param key="cost" value="6.0"/>
        <param key="power" value="1525.0"/>
        <param key="chargeDelay" value="2.0"/>
    </chargingStation>
   <chargingStation id="cs_31" lane="E3D3_0" startPos="300.00" endPos="400.00" power="21462.0" chargeDelay="7.0">
        <param key="cost" value="12.0"/>
        <param key="power" value="21462.0"/>
        <param key="chargeDelay" value="7.0"/>
    </chargingStation>
   <chargingStation id="cs_32" lane="D3E3_0" startPos="300.00" endPos="400.00" power="27523.0" chargeDelay="4.0">
        <param key="cost" value="11.0"/>
        <param key="power" value="27523.0"/>
        <param key="chargeDelay" value="4.0"/>
    </chargingStation>
   <chargingStation id="cs_33" lane="D4D3_0" startPos="300.00" endPos="400.00" power="36839.0" chargeDelay="2.0">
        <param key="cost" value="11.0"/>
        <param key="power" value="36839.0"/>
        <param key="chargeDelay" value="2.0"/>
    </chargingStation>
   <chargingStation id="cs_34" lane="D3D4_0" startPos="300.00" endPos="400.00" power="39187.0" chargeDelay="3.0">
        <param key="cost" value="14.0"/>
        <param key="power" value="39187.0"/>
        <param key="chargeDelay" value="3.0"/>
    </chargingStation>
   <chargingStation id="cs_35" lane="A6B6_0" startPos="300.00" endPos="400.00" power="36385.0" chargeDelay="7.0">
        <param key="cost" value="6.0"/>
        <param key="power" value="36385.0"/>
        <param key="chargeDelay" value="7.0"/>
    </chargingStation>
   <chargingStation id="cs_36" lane="E4D4_0" startPos="300.00" endPos="400.00" power="20472.0" chargeDelay="4.0">
        <param key="cost" value="8.0"/>
        <param key="power" value="20472.0"/>
        <param key="chargeDelay" value="4.0"/>
    </chargingStation>
   <chargingStation id="cs_37" lane="D4E4_0" startPos="300.00" endPos="400.00" power="28075.0" chargeDelay="8.0">
        <param key="cost" value="14.0"/>
        <param key="power" value="28075.0"/>
        <param key="chargeDelay" value="8.0"/>
    </chargingStation>
   <chargingStation id="cs_38" lane="D5D4_0" startPos="300.00" endPos="400.00" power="34511.0" chargeDelay="6.0">
        <param key="cost" value="11.0"/>
        <param key="power" value="34511.0"/>
        <param key="chargeDelay" value="6.0"/>
    </chargingStation>
   <chargingStation id="cs_39" lane="D4D5_0" startPos="300.00" endPos="400.00" power="45808.0" chargeDelay="10.0">
        <param key="cost" value="10.0"/>
        <param key="power" value="45808.0"/>
        <param key="chargeDelay" value="10.0"/>
    </chargingStation>
   <chargingStation id="cs_40" lane="E5D5_0" startPos="300.00" endPos="400.00" power="38622.0" chargeDelay="3.0">
        <param key="cost" value="10.0"/>
        <param key="power" value="38622.0"/>
        <param key="chargeDelay" value="3.0"/>
    </chargingStation>
   <chargingStation id="cs_41" lane="D5E5_0" startPos="300.00" endPos="400.00" power="44130.0" chargeDelay="4.0">
        <param key="cost" value="6.0"/>
        <param key="power" value="44130.0"/>
        <param key="chargeDelay" value="4.0"/>
    </chargingStation>
   <chargingStation id="cs_42" lane="D6D5_0" startPos="300.00" endPos="400.00" power="9802.0" chargeDelay="4.0">
        <param key="cost" value="13.0"/>
        <param key="power" value="9802.0"/>
        <param key="chargeDelay" value="4.0"/>
    </chargingStation>
   <chargingStation id="cs_43" lane="D5D6_0" startPos="300.00" endPos="400.00" power="5220.0" chargeDelay="6.0">
        <param key="cost" value="6.0"/>
        <param key="power" value="5220.0"/>
        <param key="chargeDelay" value="6.0"/>
    </chargingStation>
   <chargingStation id="cs_44" lane="E6D6_0" startPos="300.00" endPos="400.00" power="25160.0" chargeDelay="6.0">
        <param key="cost" value="9.0"/>
        <param key="power" value="25160.0"/>
        <param key="chargeDelay" value="6.0"/>
    </chargingStation>
   <chargingStation id="cs_45" lane="D6E6_0" startPos="300.00" endPos="400.00" power="5218.0" chargeDelay="7.0">
        <param key="cost" value="9.0"/>
        <param key="power" value="5218.0"/>
        <param key="chargeDelay" value="7.0"/>
    </chargingStation>
   <chargingStation id="cs_46" lane="A6A5_0" startPos="300.00" endPos="400.00" power="18021.0" chargeDelay="6.0">
        <param key="cost" value="6.0"/>
        <param key="power" value="18021.0"/>
        <param key="chargeDelay" value="6.0"/>
    </chargingStation>
   <chargingStation id="cs_47" lane="D7D6_0" startPos="300.00" endPos="400.00" power="48312.0" chargeDelay="7.0">
        <param key="cost" value="11.0"/>
        <param key="power" value="48312.0"/>
        <param key="chargeDelay" value="7.0"/>
    </chargingStation>
   <chargingStation id="cs_48" lane="D6D7_0" startPos="300.00" endPos="400.00" power="9866.0" chargeDelay="5.0">
        <param key="cost" value="8.0"/>
        <param key="power" value="9866.0"/>
        <param key="chargeDelay" value="5.0"/>
    </chargingStation>
   <chargingStation id="cs_49" lane="E7D7_0" startPos="300.00" endPos="400.00" power="30481.0" chargeDelay="4.0">
        <param key="cost" value="13.0"/>
        <param key="power" value="30481.0"/>
        <param key="chargeDelay" value="4.0"/>
    </chargingStation>
   <chargingStation id="cs_50" lane="D7E7_0" startPos="300.00" endPos="400.00" power="3802.0" chargeDelay="3.0">
        <param key="cost" value="9.0"/>
        <param key="power" value="3802.0"/>
        <param key="chargeDelay" value="3.0"/>
    </chargingStation>
   <chargingStation id="cs_51" lane="D8D7_0" startPos="300.00" endPos="400.00" power="7841.0" chargeDelay="5.0">
        <param key="cost" value="6.0"/>
        <param key="power" value="7841.0"/>
        <param key="chargeDelay" value="5.0"/>
    </chargingStation>
   <chargingStation id="cs_52" lane="D7D8_0" startPos="300.00" endPos="400.00" power="14942.0" chargeDelay="7.0">
        <param key="cost" value="10.0"/>
        <param key="power" value="14942.0"/>
        <param key="chargeDelay" value="7.0"/>
    </chargingStation>
   <chargingStation id="cs_53" lane="E8D8_0" startPos="300.00" endPos="400.00" power="42601.0" chargeDelay="5.0">
        <param key="cost" value="14.0"/>
        <param key="power" value="42601.0"/>
        <param key="chargeDelay" value="5.0"/>
    </chargingStation>
   <chargingStation id="cs_54" lane="D8E8_0" startPos="300.00" endPos="400.00" power="6032.0" chargeDelay="8.0">
        <param key="cost" value="7.0"/>
        <param key="power" value="6032.0"/>
        <param key="chargeDelay" value="8.0"/>
    </chargingStation>
   <chargingStation id="cs_55" lane="D9D8_0" startPos="300.00" endPos="400.00" power="12994.0" chargeDelay="8.0">
        <param key="cost" value="15.0"/>
        <param key="power" value="12994.0"/>
        <param key="chargeDelay" value="8.0"/>
    </chargingStation>
   <chargingStation id="cs_56" lane="D8D9_0" startPos="300.00" endPos="400.00" power="49987.0" chargeDelay="1.0">
        <param key="cost" value="12.0"/>
        <param key="power" value="49987.0"/>
        <param key="chargeDelay" value="1.0"/>
    </chargingStation>
   <chargingStation id="cs_57" lane="A5A6_0" startPos="300.00" endPos="400.00" power="7072.0" chargeDelay="8.0">
        <param key="cost" value="14.0"/>
        <param key="power" value="7072.0"/>
        <param key="chargeDelay" value="8.0"/>
    </chargingStation>
   <chargingStation id="cs_58" lane="E9D9_0" startPos="300.00" endPos="400.00" power="13016.0" chargeDelay="4.0">
        <param key="cost" value="9.0"/>
        <param key="power" value="13016.0"/>
        <param key="chargeDelay" value="4.0"/>
    </chargingStation>
   <chargingStation id="cs_59" lane="D9E9_0" startPos="300.00" endPos="400.00" power="12245.0" chargeDelay="2.0">
        <param key="cost" value="13.0"/>
        <param key="power" value="12245.0"/>
        <param key="chargeDelay" value="2.0"/>
    </chargingStation>
   <chargingStation id="cs_60" lane="F9E9_0" startPos="300.00" endPos="400.00" power="3131.0" chargeDelay="8.0">
        <param key="cost" value="13.0"/>
        <param key="power" value="3131.0"/>
        <param key="chargeDelay" value="8.0"/>
    </chargingStation>
   <chargingStation id="cs_61" lane="E9F9_0" startPos="300.00" endPos="400.00" power="4474.0" chargeDelay="9.0">
        <param key="cost" value="8.0"/>
        <param key="power" value="4474.0"/>
        <param key="chargeDelay" value="9.0"/>
    </chargingStation>
   <chargingStation id="cs_62" lane="E9E8_0" startPos="300.00" endPos="400.00" power="33923.0" chargeDelay="3.0">
        <param key="cost" value="7.0"/>
        <param key="power" value="33923.0"/>
        <param key="chargeDelay" value="3.0"/>
    </chargingStation>
   <chargingStation id="cs_63" lane="E8E9_0" startPos="300.00" endPos="400.00" power="2504.0" chargeDelay="4.0">
        <param key="cost" value="15.0"/>
        <param key="power" value="2504.0"/>
        <param key="chargeDelay" value="4.0"/>
    </chargingStation>
   <chargingStation id="cs_64" lane="F8E8_0" startPos="300.00" endPos="400.00" power="31060.0" chargeDelay="9.0">
        <param key="cost" value="7.0"/>
        <param key="power" value="31060.0"/>
        <param key="chargeDelay" value="9.0"/>
    </chargingStation>
   <chargingStation id="cs_65" lane="E8F8_0" startPos="300.00" endPos="400.00" power="3881.0" chargeDelay="3.0">
        <param key="cost" value="10.0"/>
        <param key="power" value="3881.0"/>
        <param key="chargeDelay" value="3.0"/>
    </chargingStation>
   <chargingStation id="cs_66" lane="E8E7_0" startPos="300.00" endPos="400.00" power="11182.0" chargeDelay="2.0">
        <param key="cost" value="6.0"/>
        <param key="power" value="11182.0"/>
        <param key="chargeDelay" value="2.0"/>
    </chargingStation>
   <chargingStation id="cs_67" lane="E7E8_0" startPos="300.00" endPos="400.00" power="43002.0" chargeDelay="2.0">
        <param key="cost" value="6.0"/>
        <param key="power" value="43002.0"/>
        <param key="chargeDelay" value="2.0"/>
    </chargingStation>
   <chargingStation id="cs_68" lane="B5A5_0" startPos="300.00" endPos="400.00" power="2443.0" chargeDelay="1.0">
        <param key="cost" value="14.0"/>
        <param key="power" value="2443.0"/>
        <param key="chargeDelay" value="1.0"/>
    </chargingStation>
   <chargingStation id="cs_69" lane="F7E7_0" startPos="300.00" endPos="400.00" power="30341.0" chargeDelay="10.0">
        <param key="cost" value="13.0"/>
        <param key="power" value="30341.0"/>
        <param key="chargeDelay" value="10.0"/>
    </chargingStation>
   <chargingStation id="cs_70" lane="E7F7_0" startPos="300.00" endPos="400.00" power="26360.0" chargeDelay="4.0">
        <param key="cost" value="11.0"/>
        <param key="power" value="26360.0"/>
        <param key="chargeDelay" value="4.0"/>
    </chargingStation>
   <chargingStation id="cs_71" lane="E7E6_0" startPos="300.00" endPos="400.00" power="49136.0" chargeDelay="7.0">
        <param key="cost" value="14.0"/>
        <param key="power" value="49136.0"/>
        <param key="chargeDelay" value="7.0"/>
    </chargingStation>
   <chargingStation id="cs_72" lane="E6E7_0" startPos="300.00" endPos="400.00" power="43112.0" chargeDelay="5.0">
        <param key="cost" value="10.0"/>
        <param key="power" value="43112.0"/>
        <param key="chargeDelay" value="5.0"/>
    </chargingStation>
   <chargingStation id="cs_73" lane="F6E6_0" startPos="300.00" endPos="400.00" power="46683.0" chargeDelay="4.0">
        <param key="cost" value="7.0"/>
        <param key="power" value="46683.0"/>
        <param key="chargeDelay" value="4.0"/>
    </chargingStation>
   <chargingStation id="cs_74" lane="E6F6_0" startPos="300.00" endPos="400.00" power="30806.0" chargeDelay="10.0">
        <param key="cost" value="12.0"/>
        <param key="power" value="30806.0"/>
        <param key="chargeDelay" value="10.0"/>
    </chargingStation>
   <chargingStation id="cs_75" lane="E6E5_0" startPos="300.00" endPos="400.00" power="45232.0" chargeDelay="2.0">
        <param key="cost" value="14.0"/>
        <param key="power" value="45232.0"/>
        <param key="chargeDelay" value="2.0"/>
    </chargingStation>
   <chargingStation id="cs_76" lane="E5E6_0" startPos="300.00" endPos="400.00" power="14856.0" chargeDelay="5.0">
        <param key="cost" value="9.0"/>
        <param key="power" value="14856.0"/>
        <param key="chargeDelay" value="5.0"/>
    </chargingStation>
   <chargingStation id="cs_77" lane="F5E5_0" startPos="300.00" endPos="400.00" power="31167.0" chargeDelay="4.0">
        <param key="cost" value="7.0"/>
        <param key="power" value="31167.0"/>
        <param key="chargeDelay" value="4.0"/>
    </chargingStation>
   <chargingStation id="cs_78" lane="E5F5_0" startPos="300.00" endPos="400.00" power="38665.0" chargeDelay="4.0">
        <param key="cost" value="13.0"/>
        <param key="power" value="38665.0"/>
        <param key="chargeDelay" value="4.0"/>
    </chargingStation>
   <chargingStation id="cs_79" lane="A5B5_0" startPos="300.00" endPos="400.00" power="9295.0" chargeDelay="10.0">
        <param key="cost" value="8.0"/>
        <param key="power" value="9295.0"/>
        <param key="chargeDelay" value="10.0"/>
    </chargingStation>
   <chargingStation id="cs_80" lane="E5E4_0" startPos="300.00" endPos="400.00" power="16926.0" chargeDelay="3.0">
        <param key="cost" value="11.0"/>
        <param key="power" value="16926.0"/>
        <param key="chargeDelay" value="3.0"/>
    </chargingStation>
   <chargingStation id="cs_81" lane="E4E5_0" startPos="300.00" endPos="400.00" power="12864.0" chargeDelay="6.0">
        <param key="cost" value="13.0"/>
        <param key="power" value="12864.0"/>
        <param key="chargeDelay" value="6.0"/>
    </chargingStation>
   <chargingStation id="cs_82" lane="F4E4_0" startPos="300.00" endPos="400.00" power="20618.0" chargeDelay="10.0">
        <param key="cost" value="15.0"/>
        <param key="power" value="20618.0"/>
        <param key="chargeDelay" value="10.0"/>
    </chargingStation>
   <chargingStation id="cs_83" lane="E4F4_0" startPos="300.00" endPos="400.00" power="47891.0" chargeDelay="9.0">
        <param key="cost" value="10.0"/>
        <param key="power" value="47891.0"/>
        <param key="chargeDelay" value="9.0"/>
    </chargingStation>
   <chargingStation id="cs_84" lane="E4E3_0" startPos="300.00" endPos="400.00" power="32708.0" chargeDelay="4.0">
        <param key="cost" value="10.0"/>
        <param key="power" value="32708.0"/>
        <param key="chargeDelay" value="4.0"/>
    </chargingStation>
   <chargingStation id="cs_85" lane="E3E4_0" startPos="300.00" endPos="400.00" power="7650.0" chargeDelay="5.0">
        <param key="cost" value="8.0"/>
        <param key="power" value="7650.0"/>
        <param key="chargeDelay" value="5.0"/>
    </chargingStation>
   <chargingStation id="cs_86" lane="F3E3_0" startPos="300.00" endPos="400.00" power="22909.0" chargeDelay="2.0">
        <param key="cost" value="8.0"/>
        <param key="power" value="22909.0"/>
        <param key="chargeDelay" value="2.0"/>
    </chargingStation>
   <chargingStation id="cs_87" lane="E3F3_0" startPos="300.00" endPos="400.00" power="48911.0" chargeDelay="8.0">
        <param key="cost" value="10.0"/>
        <param key="power" value="48911.0"/>
        <param key="chargeDelay" value="8.0"/>
    </chargingStation>
   <chargingStation id="cs_88" lane="E3E2_0" startPos="300.00" endPos="400.00" power="28449.0" chargeDelay="9.0">
        <param key="cost" value="12.0"/>
        <param key="power" value="28449.0"/>
        <param key="chargeDelay" value="9.0"/>
    </chargingStation>
   <chargingStation id="cs_89" lane="E2E3_0" startPos="300.00" endPos="400.00" power="49520.0" chargeDelay="1.0">
        <param key="cost" value="15.0"/>
        <param key="power" value="49520.0"/>
        <param key="chargeDelay" value="1.0"/>
    </chargingStation>
   <chargingStation id="cs_90" lane="A5A4_0" startPos="300.00" endPos="400.00" power="26272.0" chargeDelay="9.0">
        <param key="cost" value="15.0"/>
        <param key="power" value="26272.0"/>
        <param key="chargeDelay" value="9.0"/>
    </chargingStation>
   <chargingStation id="cs_91" lane="F2E2_0" startPos="300.00" endPos="400.00" power="7711.0" chargeDelay="7.0">
        <param key="cost" value="7.0"/>
        <param key="power" value="7711.0"/>
        <param key="chargeDelay" value="7.0"/>
    </chargingStation>
   <chargingStation id="cs_92" lane="E2F2_0" startPos="300.00" endPos="400.00" power="11926.0" chargeDelay="2.0">
        <param key="cost" value="14.0"/>
        <param key="power" value="11926.0"/>
        <param key="chargeDelay" value="2.0"/>
    </chargingStation>
   <chargingStation id="cs_93" lane="E2E1_0" startPos="300.00" endPos="400.00" power="16625.0" chargeDelay="1.0">
        <param key="cost" value="7.0"/>
        <param key="power" value="16625.0"/>
        <param key="chargeDelay" value="1.0"/>
    </chargingStation>
   <chargingStation id="cs_94" lane="E1E2_0" startPos="300.00" endPos="400.00" power="23274.0" chargeDelay="9.0">
        <param key="cost" value="6.0"/>
        <param key="power" value="23274.0"/>
        <param key="chargeDelay" value="9.0"/>
    </chargingStation>
   <chargingStation id="cs_95" lane="F1E1_0" startPos="300.00" endPos="400.00" power="31219.0" chargeDelay="3.0">
        <param key="cost" value="5.0"/>
        <param key="power" value="31219.0"/>
        <param key="chargeDelay" value="3.0"/>
    </chargingStation>
   <chargingStation id="cs_96" lane="E1F1_0" startPos="300.00" endPos="400.00" power="42979.0" chargeDelay="5.0">
        <param key="cost" value="10.0"/>
        <param key="power" value="42979.0"/>
        <param key="chargeDelay" value="5.0"/>
    </chargingStation>
   <chargingStation id="cs_97" lane="E1E0_0" startPos="300.00" endPos="400.00" power="27106.0" chargeDelay="8.0">
        <param key="cost" value="9.0"/>
        <param key="power" value="27106.0"/>
        <param key="chargeDelay" value="8.0"/>
    </chargingStation>
   <chargingStation id="cs_98" lane="E0E1_0" startPos="300.00" endPos="400.00" power="12680.0" chargeDelay="1.0">
        <param key="cost" value="13.0"/>
        <param key="power" value="12680.0"/>
        <param key="chargeDelay" value="1.0"/>
    </chargingStation>
   <chargingStation id="cs_99" lane="F0E0_0" startPos="300.00" endPos="400.00" power="29519.0" chargeDelay="2.0">
        <param key="cost" value="5.0"/>
        <param key="power" value="29519.0"/>
        <param key="chargeDelay" value="2.0"/>
    </chargingStation>
   <chargingStation id="cs_100" lane="E0F0_0" startPos="300.00" endPos="400.00" power="8113.0" chargeDelay="4.0">
        <param key="cost" value="6.0"/>
        <param key="power" value="8113.0"/>
        <param key="chargeDelay" value="4.0"/>
    </chargingStation>
   <chargingStation id="cs_101" lane="A4A5_0" startPos="300.00" endPos="400.00" power="49238.0" chargeDelay="7.0">
        <param key="cost" value="11.0"/>
        <param key="power" value="49238.0"/>
        <param key="chargeDelay" value="7.0"/>
    </chargingStation>
   <chargingStation id="cs_102" lane="F1F0_0" startPos="300.00" endPos="400.00" power="12610.0" chargeDelay="5.0">
        <param key="cost" value="8.0"/>
        <param key="power" value="12610.0"/>
        <param key="chargeDelay" value="5.0"/>
    </chargingStation>
   <chargingStation id="cs_103" lane="F0F1_0" startPos="300.00" endPos="400.00" power="12119.0" chargeDelay="9.0">
        <param key="cost" value="9.0"/>
        <param key="power" value="12119.0"/>
        <param key="chargeDelay" value="9.0"/>
    </chargingStation>
   <chargingStation id="cs_104" lane="G0F0_0" startPos="300.00" endPos="400.00" power="39118.0" chargeDelay="10.0">
        <param key="cost" value="13.0"/>
        <param key="power" value="39118.0"/>
        <param key="chargeDelay" value="10.0"/>
    </chargingStation>
   <chargingStation id="cs_105" lane="F0G0_0" startPos="300.00" endPos="400.00" power="10434.0" chargeDelay="6.0">
        <param key="cost" value="10.0"/>
        <param key="power" value="10434.0"/>
        <param key="chargeDelay" value="6.0"/>
    </chargingStation>
   <chargingStation id="cs_106" lane="G1F1_0" startPos="300.00" endPos="400.00" power="21573.0" chargeDelay="9.0">
        <param key="cost" value="7.0"/>
        <param key="power" value="21573.0"/>
        <param key="chargeDelay" value="9.0"/>
    </chargingStation>
   <chargingStation id="cs_107" lane="F1G1_0" startPos="300.00" endPos="400.00" power="45981.0" chargeDelay="2.0">
        <param key="cost" value="8.0"/>
        <param key="power" value="45981.0"/>
        <param key="chargeDelay" value="2.0"/>
    </chargingStation>
   <chargingStation id="cs_108" lane="F2F1_0" startPos="300.00" endPos="400.00" power="43611.0" chargeDelay="7.0">
        <param key="cost" value="7.0"/>
        <param key="power" value="43611.0"/>
        <param key="chargeDelay" value="7.0"/>
    </chargingStation>
   <chargingStation id="cs_109" lane="F1F2_0" startPos="300.00" endPos="400.00" power="40240.0" chargeDelay="10.0">
        <param key="cost" value="15.0"/>
        <param key="power" value="40240.0"/>
        <param key="chargeDelay" value="10.0"/>
    </chargingStation>
   <chargingStation id="cs_110" lane="G2F2_0" startPos="300.00" endPos="400.00" power="42326.0" chargeDelay="9.0">
        <param key="cost" value="14.0"/>
        <param key="power" value="42326.0"/>
        <param key="chargeDelay" value="9.0"/>
    </chargingStation>